data_IRMOF10_SG202_interpen_Ligand4cp_label_y.

_audit_creation_method             'generated by an auxiliary program of Tobunporous'

_symmetry_space_group_name_H-M     'P 1'
_symmetry_Int_Tables_number        1
_symmetry_cell_setting             triclinic

_cell_length_a                    34.2800
_cell_length_b                    34.2800
_cell_length_c                    34.2800
_cell_angle_alpha                 90.0000
_cell_angle_beta                  90.0000
_cell_angle_gamma                 90.0000

loop_
_atom_site_label
_atom_site_fract_x
_atom_site_fract_y
_atom_site_fract_z
_atom_site_occupancy
O1       0.75000    0.75000    0.75000   1.00
Zn1      0.71720    0.78280    0.78280   1.00
Zn1      0.78280    0.71720    0.78280   1.00
Zn1      0.78280    0.78280    0.71720   1.00
Zn1      0.71720    0.71720    0.71720   1.00
O2       0.72650    0.77350    0.83820   1.00
O2       0.72650    0.83820    0.77350   1.00
O2       0.66180    0.77350    0.77350   1.00
O2       0.77350    0.72650    0.83820   1.00
O2       0.83820    0.72650    0.77350   1.00
O2       0.77350    0.66180    0.77350   1.00
O2       0.77350    0.83820    0.72650   1.00
O2       0.83820    0.77350    0.72650   1.00
O2       0.77350    0.77350    0.66180   1.00
O2       0.66180    0.72650    0.72650   1.00
O2       0.72650    0.66180    0.72650   1.00
O2       0.72650    0.72650    0.66180   1.00
C1       0.75000    0.75000    0.85520   1.00
C1       0.75000    0.85520    0.75000   1.00
C1       0.64480    0.75000    0.75000   1.00
C1       0.85520    0.75000    0.75000   1.00
C1       0.75000    0.64480    0.75000   1.00
C1       0.75000    0.75000    0.64480   1.00
O1       0.25000    0.25000    0.75000   1.00
Zn1      0.21720    0.28280    0.78280   1.00
Zn1      0.28280    0.21720    0.78280   1.00
Zn1      0.28280    0.28280    0.71720   1.00
Zn1      0.21720    0.21720    0.71720   1.00
O2       0.22650    0.27350    0.83820   1.00
O2       0.22650    0.33820    0.77350   1.00
O2       0.16180    0.27350    0.77350   1.00
O2       0.27350    0.22650    0.83820   1.00
O2       0.33820    0.22650    0.77350   1.00
O2       0.27350    0.16180    0.77350   1.00
O2       0.27350    0.33820    0.72650   1.00
O2       0.33820    0.27350    0.72650   1.00
O2       0.27350    0.27350    0.66180   1.00
O2       0.16180    0.22650    0.72650   1.00
O2       0.22650    0.16180    0.72650   1.00
O2       0.22650    0.22650    0.66180   1.00
C1       0.25000    0.25000    0.85520   1.00
C1       0.25000    0.35520    0.75000   1.00
C1       0.14480    0.25000    0.75000   1.00
C1       0.35520    0.25000    0.75000   1.00
C1       0.25000    0.14480    0.75000   1.00
C1       0.25000    0.25000    0.64480   1.00
O1       0.25000    0.75000    0.25000   1.00
Zn1      0.21720    0.78280    0.28280   1.00
Zn1      0.28280    0.71720    0.28280   1.00
Zn1      0.28280    0.78280    0.21720   1.00
Zn1      0.21720    0.71720    0.21720   1.00
O2       0.22650    0.77350    0.33820   1.00
O2       0.22650    0.83820    0.27350   1.00
O2       0.16180    0.77350    0.27350   1.00
O2       0.27350    0.72650    0.33820   1.00
O2       0.33820    0.72650    0.27350   1.00
O2       0.27350    0.66180    0.27350   1.00
O2       0.27350    0.83820    0.22650   1.00
O2       0.33820    0.77350    0.22650   1.00
O2       0.27350    0.77350    0.16180   1.00
O2       0.16180    0.72650    0.22650   1.00
O2       0.22650    0.66180    0.22650   1.00
O2       0.22650    0.72650    0.16180   1.00
C1       0.25000    0.75000    0.35520   1.00
C1       0.25000    0.85520    0.25000   1.00
C1       0.14480    0.75000    0.25000   1.00
C1       0.35520    0.75000    0.25000   1.00
C1       0.25000    0.64480    0.25000   1.00
C1       0.25000    0.75000    0.14480   1.00
O1       0.75000    0.25000    0.25000   1.00
Zn1      0.71720    0.28280    0.28280   1.00
Zn1      0.78280    0.21720    0.28280   1.00
Zn1      0.78280    0.28280    0.21720   1.00
Zn1      0.71720    0.21720    0.21720   1.00
O2       0.72650    0.27350    0.33820   1.00
O2       0.72650    0.33820    0.27350   1.00
O2       0.66180    0.27350    0.27350   1.00
O2       0.77350    0.22650    0.33820   1.00
O2       0.83820    0.22650    0.27350   1.00
O2       0.77350    0.16180    0.27350   1.00
O2       0.77350    0.33820    0.22650   1.00
O2       0.83820    0.27350    0.22650   1.00
O2       0.77350    0.27350    0.16180   1.00
O2       0.66180    0.22650    0.22650   1.00
O2       0.72650    0.16180    0.22650   1.00
O2       0.72650    0.22650    0.16180   1.00
C1       0.75000    0.25000    0.35520   1.00
C1       0.75000    0.35520    0.25000   1.00
C1       0.64480    0.25000    0.25000   1.00
C1       0.85520    0.25000    0.25000   1.00
C1       0.75000    0.14480    0.25000   1.00
C1       0.75000    0.25000    0.14480   1.00
O1       0.25000    0.25000    0.25000   1.00
Zn1      0.28280    0.21720    0.21720   1.00
Zn1      0.21720    0.28280    0.21720   1.00
Zn1      0.21720    0.21720    0.28280   1.00
Zn1      0.28280    0.28280    0.28280   1.00
O2       0.27350    0.22650    0.16180   1.00
O2       0.27350    0.16180    0.22650   1.00
O2       0.33820    0.22650    0.22650   1.00
O2       0.22650    0.27350    0.16180   1.00
O2       0.16180    0.27350    0.22650   1.00
O2       0.22650    0.33820    0.22650   1.00
O2       0.22650    0.16180    0.27350   1.00
O2       0.16180    0.22650    0.27350   1.00
O2       0.22650    0.22650    0.33820   1.00
O2       0.33820    0.27350    0.27350   1.00
O2       0.27350    0.33820    0.27350   1.00
O2       0.27350    0.27350    0.33820   1.00
C1       0.25000    0.25000    0.14480   1.00
C1       0.25000    0.14480    0.25000   1.00
C1       0.35520    0.25000    0.25000   1.00
C1       0.14480    0.25000    0.25000   1.00
C1       0.25000    0.35520    0.25000   1.00
C1       0.25000    0.25000    0.35520   1.00
O1       0.75000    0.75000    0.25000   1.00
Zn1      0.78280    0.71720    0.21720   1.00
Zn1      0.71720    0.78280    0.21720   1.00
Zn1      0.71720    0.71720    0.28280   1.00
Zn1      0.78280    0.78280    0.28280   1.00
O2       0.77350    0.72650    0.16180   1.00
O2       0.77350    0.66180    0.22650   1.00
O2       0.83820    0.72650    0.22650   1.00
O2       0.72650    0.77350    0.16180   1.00
O2       0.66180    0.77350    0.22650   1.00
O2       0.72650    0.83820    0.22650   1.00
O2       0.72650    0.66180    0.27350   1.00
O2       0.66180    0.72650    0.27350   1.00
O2       0.72650    0.72650    0.33820   1.00
O2       0.83820    0.77350    0.27350   1.00
O2       0.77350    0.83820    0.27350   1.00
O2       0.77350    0.77350    0.33820   1.00
C1       0.75000    0.75000    0.14480   1.00
C1       0.75000    0.64480    0.25000   1.00
C1       0.85520    0.75000    0.25000   1.00
C1       0.64480    0.75000    0.25000   1.00
C1       0.75000    0.85520    0.25000   1.00
C1       0.75000    0.75000    0.35520   1.00
O1       0.75000    0.25000    0.75000   1.00
Zn1      0.78280    0.21720    0.71720   1.00
Zn1      0.71720    0.28280    0.71720   1.00
Zn1      0.71720    0.21720    0.78280   1.00
Zn1      0.78280    0.28280    0.78280   1.00
O2       0.77350    0.22650    0.66180   1.00
O2       0.77350    0.16180    0.72650   1.00
O2       0.83820    0.22650    0.72650   1.00
O2       0.72650    0.27350    0.66180   1.00
O2       0.66180    0.27350    0.72650   1.00
O2       0.72650    0.33820    0.72650   1.00
O2       0.72650    0.16180    0.77350   1.00
O2       0.66180    0.22650    0.77350   1.00
O2       0.72650    0.22650    0.83820   1.00
O2       0.83820    0.27350    0.77350   1.00
O2       0.77350    0.33820    0.77350   1.00
O2       0.77350    0.27350    0.83820   1.00
C1       0.75000    0.25000    0.64480   1.00
C1       0.75000    0.14480    0.75000   1.00
C1       0.85520    0.25000    0.75000   1.00
C1       0.64480    0.25000    0.75000   1.00
C1       0.75000    0.35520    0.75000   1.00
C1       0.75000    0.25000    0.85520   1.00
O1       0.25000    0.75000    0.75000   1.00
Zn1      0.28280    0.71720    0.71720   1.00
Zn1      0.21720    0.78280    0.71720   1.00
Zn1      0.21720    0.71720    0.78280   1.00
Zn1      0.28280    0.78280    0.78280   1.00
O2       0.27350    0.72650    0.66180   1.00
O2       0.27350    0.66180    0.72650   1.00
O2       0.33820    0.72650    0.72650   1.00
O2       0.22650    0.77350    0.66180   1.00
O2       0.16180    0.77350    0.72650   1.00
O2       0.22650    0.83820    0.72650   1.00
O2       0.22650    0.66180    0.77350   1.00
O2       0.16180    0.72650    0.77350   1.00
O2       0.22650    0.72650    0.83820   1.00
O2       0.33820    0.77350    0.77350   1.00
O2       0.27350    0.83820    0.77350   1.00
O2       0.27350    0.77350    0.83820   1.00
C1       0.25000    0.75000    0.64480   1.00
C1       0.25000    0.64480    0.75000   1.00
C1       0.35520    0.75000    0.75000   1.00
C1       0.14480    0.75000    0.75000   1.00
C1       0.25000    0.85520    0.75000   1.00
C1       0.25000    0.75000    0.85520   1.00
O1       0.91500    0.91500    0.91500   1.00
Zn1      0.88220    0.94780    0.94780   1.00
Zn1      0.94780    0.88220    0.94780   1.00
Zn1      0.94780    0.94780    0.88220   1.00
Zn1      0.88220    0.88220    0.88220   1.00
O2       0.89150    0.93850    1.00320   1.00
O2       0.89150    1.00320    0.93850   1.00
O2       0.82680    0.93850    0.93850   1.00
O2       0.93850    0.89150    1.00320   1.00
O2       1.00320    0.89150    0.93850   1.00
O2       0.93850    0.82680    0.93850   1.00
O2       0.93850    1.00320    0.89150   1.00
O2       1.00320    0.93850    0.89150   1.00
O2       0.93850    0.93850    0.82680   1.00
O2       0.82680    0.89150    0.89150   1.00
O2       0.89150    0.82680    0.89150   1.00
O2       0.89150    0.89150    0.82680   1.00
C1       0.91500    0.91500    1.02020   1.00
C1       0.91500    1.02020    0.91500   1.00
C1       0.80980    0.91500    0.91500   1.00
C1       1.02020    0.91500    0.91500   1.00
C1       0.91500    0.80980    0.91500   1.00
C1       0.91500    0.91500    0.80980   1.00
O1       0.41500    0.41500    0.91500   1.00
Zn1      0.38220    0.44780    0.94780   1.00
Zn1      0.44780    0.38220    0.94780   1.00
Zn1      0.44780    0.44780    0.88220   1.00
Zn1      0.38220    0.38220    0.88220   1.00
O2       0.39150    0.43850    1.00320   1.00
O2       0.39150    0.50320    0.93850   1.00
O2       0.32680    0.43850    0.93850   1.00
O2       0.43850    0.39150    1.00320   1.00
O2       0.50320    0.39150    0.93850   1.00
O2       0.43850    0.32680    0.93850   1.00
O2       0.43850    0.50320    0.89150   1.00
O2       0.50320    0.43850    0.89150   1.00
O2       0.43850    0.43850    0.82680   1.00
O2       0.32680    0.39150    0.89150   1.00
O2       0.39150    0.32680    0.89150   1.00
O2       0.39150    0.39150    0.82680   1.00
C1       0.41500    0.41500    1.02020   1.00
C1       0.41500    0.52020    0.91500   1.00
C1       0.30980    0.41500    0.91500   1.00
C1       0.52020    0.41500    0.91500   1.00
C1       0.41500    0.30980    0.91500   1.00
C1       0.41500    0.41500    0.80980   1.00
O1       0.41500    0.91500    0.41500   1.00
Zn1      0.38220    0.94780    0.44780   1.00
Zn1      0.44780    0.88220    0.44780   1.00
Zn1      0.44780    0.94780    0.38220   1.00
Zn1      0.38220    0.88220    0.38220   1.00
O2       0.39150    0.93850    0.50320   1.00
O2       0.39150    1.00320    0.43850   1.00
O2       0.32680    0.93850    0.43850   1.00
O2       0.43850    0.89150    0.50320   1.00
O2       0.50320    0.89150    0.43850   1.00
O2       0.43850    0.82680    0.43850   1.00
O2       0.43850    1.00320    0.39150   1.00
O2       0.50320    0.93850    0.39150   1.00
O2       0.43850    0.93850    0.32680   1.00
O2       0.32680    0.89150    0.39150   1.00
O2       0.39150    0.82680    0.39150   1.00
O2       0.39150    0.89150    0.32680   1.00
C1       0.41500    0.91500    0.52020   1.00
C1       0.41500    1.02020    0.41500   1.00
C1       0.30980    0.91500    0.41500   1.00
C1       0.52020    0.91500    0.41500   1.00
C1       0.41500    0.80980    0.41500   1.00
C1       0.41500    0.91500    0.30980   1.00
O1       0.91500    0.41500    0.41500   1.00
Zn1      0.88220    0.44780    0.44780   1.00
Zn1      0.94780    0.38220    0.44780   1.00
Zn1      0.94780    0.44780    0.38220   1.00
Zn1      0.88220    0.38220    0.38220   1.00
O2       0.89150    0.43850    0.50320   1.00
O2       0.89150    0.50320    0.43850   1.00
O2       0.82680    0.43850    0.43850   1.00
O2       0.93850    0.39150    0.50320   1.00
O2       1.00320    0.39150    0.43850   1.00
O2       0.93850    0.32680    0.43850   1.00
O2       0.93850    0.50320    0.39150   1.00
O2       1.00320    0.43850    0.39150   1.00
O2       0.93850    0.43850    0.32680   1.00
O2       0.82680    0.39150    0.39150   1.00
O2       0.89150    0.32680    0.39150   1.00
O2       0.89150    0.39150    0.32680   1.00
C1       0.91500    0.41500    0.52020   1.00
C1       0.91500    0.52020    0.41500   1.00
C1       0.80980    0.41500    0.41500   1.00
C1       1.02020    0.41500    0.41500   1.00
C1       0.91500    0.30980    0.41500   1.00
C1       0.91500    0.41500    0.30980   1.00
O1       0.41500    0.41500    0.41500   1.00
Zn1      0.44780    0.38220    0.38220   1.00
Zn1      0.38220    0.44780    0.38220   1.00
Zn1      0.38220    0.38220    0.44780   1.00
Zn1      0.44780    0.44780    0.44780   1.00
O2       0.43850    0.39150    0.32680   1.00
O2       0.43850    0.32680    0.39150   1.00
O2       0.50320    0.39150    0.39150   1.00
O2       0.39150    0.43850    0.32680   1.00
O2       0.32680    0.43850    0.39150   1.00
O2       0.39150    0.50320    0.39150   1.00
O2       0.39150    0.32680    0.43850   1.00
O2       0.32680    0.39150    0.43850   1.00
O2       0.39150    0.39150    0.50320   1.00
O2       0.50320    0.43850    0.43850   1.00
O2       0.43850    0.50320    0.43850   1.00
O2       0.43850    0.43850    0.50320   1.00
C1       0.41500    0.41500    0.30980   1.00
C1       0.41500    0.30980    0.41500   1.00
C1       0.52020    0.41500    0.41500   1.00
C1       0.30980    0.41500    0.41500   1.00
C1       0.41500    0.52020    0.41500   1.00
C1       0.41500    0.41500    0.52020   1.00
O1       0.91500    0.91500    0.41500   1.00
Zn1      0.94780    0.88220    0.38220   1.00
Zn1      0.88220    0.94780    0.38220   1.00
Zn1      0.88220    0.88220    0.44780   1.00
Zn1      0.94780    0.94780    0.44780   1.00
O2       0.93850    0.89150    0.32680   1.00
O2       0.93850    0.82680    0.39150   1.00
O2       1.00320    0.89150    0.39150   1.00
O2       0.89150    0.93850    0.32680   1.00
O2       0.82680    0.93850    0.39150   1.00
O2       0.89150    1.00320    0.39150   1.00
O2       0.89150    0.82680    0.43850   1.00
O2       0.82680    0.89150    0.43850   1.00
O2       0.89150    0.89150    0.50320   1.00
O2       1.00320    0.93850    0.43850   1.00
O2       0.93850    1.00320    0.43850   1.00
O2       0.93850    0.93850    0.50320   1.00
C1       0.91500    0.91500    0.30980   1.00
C1       0.91500    0.80980    0.41500   1.00
C1       1.02020    0.91500    0.41500   1.00
C1       0.80980    0.91500    0.41500   1.00
C1       0.91500    1.02020    0.41500   1.00
C1       0.91500    0.91500    0.52020   1.00
O1       0.91500    0.41500    0.91500   1.00
Zn1      0.94780    0.38220    0.88220   1.00
Zn1      0.88220    0.44780    0.88220   1.00
Zn1      0.88220    0.38220    0.94780   1.00
Zn1      0.94780    0.44780    0.94780   1.00
O2       0.93850    0.39150    0.82680   1.00
O2       0.93850    0.32680    0.89150   1.00
O2       1.00320    0.39150    0.89150   1.00
O2       0.89150    0.43850    0.82680   1.00
O2       0.82680    0.43850    0.89150   1.00
O2       0.89150    0.50320    0.89150   1.00
O2       0.89150    0.32680    0.93850   1.00
O2       0.82680    0.39150    0.93850   1.00
O2       0.89150    0.39150    1.00320   1.00
O2       1.00320    0.43850    0.93850   1.00
O2       0.93850    0.50320    0.93850   1.00
O2       0.93850    0.43850    1.00320   1.00
C1       0.91500    0.41500    0.80980   1.00
C1       0.91500    0.30980    0.91500   1.00
C1       1.02020    0.41500    0.91500   1.00
C1       0.80980    0.41500    0.91500   1.00
C1       0.91500    0.52020    0.91500   1.00
C1       0.91500    0.41500    1.02020   1.00
O1       0.41500    0.91500    0.91500   1.00
Zn1      0.44780    0.88220    0.88220   1.00
Zn1      0.38220    0.94780    0.88220   1.00
Zn1      0.38220    0.88220    0.94780   1.00
Zn1      0.44780    0.94780    0.94780   1.00
O2       0.43850    0.89150    0.82680   1.00
O2       0.43850    0.82680    0.89150   1.00
O2       0.50320    0.89150    0.89150   1.00
O2       0.39150    0.93850    0.82680   1.00
O2       0.32680    0.93850    0.89150   1.00
O2       0.39150    1.00320    0.89150   1.00
O2       0.39150    0.82680    0.93850   1.00
O2       0.32680    0.89150    0.93850   1.00
O2       0.39150    0.89150    1.00320   1.00
O2       0.50320    0.93850    0.93850   1.00
O2       0.43850    1.00320    0.93850   1.00
O2       0.43850    0.93850    1.00320   1.00
C1       0.41500    0.91500    0.80980   1.00
C1       0.41500    0.80980    0.91500   1.00
C1       0.52020    0.91500    0.91500   1.00
C1       0.30980    0.91500    0.91500   1.00
C1       0.41500    1.02020    0.91500   1.00
C1       0.41500    0.91500    1.02020   1.00
C4       0.75410    0.74751    0.98025   1.00
C4       0.75424    0.74597    1.02191   1.00
C3       0.77468    0.77672    0.95897   1.00
C3       0.77817    0.77090    1.04504   1.00
C3       0.73266    0.71904    0.95854   1.00
C3       0.72974    0.71859    1.04170   1.00
C2       0.75540    0.74953    0.89595   1.00
C2       0.75314    0.74420    1.10622   1.00
C3       0.77552    0.77764    0.91811   1.00
C3       0.77754    0.77023    1.08591   1.00
C3       0.73445    0.72087    0.91696   1.00
C3       0.72980    0.71900    1.08336   1.00
H1       0.78951    0.79864    0.97237   1.00
H1       0.79724    0.79021    1.03306   1.00
C5       0.71006    0.68991    0.97835   1.00
C5       0.70622    0.69164    1.01998   1.00
H1       0.79103    0.79937    0.90451   1.00
H1       0.79539    0.78907    1.10091   1.00
H1       0.71981    0.70098    0.90052   1.00
H1       0.71257    0.70015    1.09848   1.00
C6       0.69095    0.65752    0.95515   1.00
C6       0.67739    0.66573    1.04119   1.00
H2       0.71155    0.64675    0.93345   1.00
H2       0.66211    0.68297    1.06310   1.00
H2       0.68618    0.63165    0.97286   1.00
H2       0.65354    0.65680    1.02228   1.00
C6       0.65129    0.67000    0.93606   1.00
C6       0.69666    0.62846    1.05942   1.00
H2       0.65439    0.69890    0.92292   1.00
H2       0.72396    0.63652    1.07383   1.00
C6       0.63333    0.64218    0.90459   1.00
C6       0.67180    0.60422    1.08911   1.00
H2       0.62998    0.67367    0.95949   1.00
H2       0.70518    0.60923    1.03546   1.00
C6       0.65900    0.64026    0.86735   1.00
C6       0.66370    0.62750    1.12708   1.00
C6       0.62734    0.60038    0.92074   1.00
C6       0.63253    0.59097    1.07107   1.00
C6       0.59280    0.65841    0.89245   1.00
C6       0.69516    0.56711    1.10054   1.00
H2       0.66431    0.66940    0.85558   1.00
H2       0.69085    0.63783    1.14020   1.00
H2       0.68719    0.62685    0.87330   1.00
H2       0.64529    0.65280    1.12154   1.00
H2       0.64494    0.62299    0.84459   1.00
H2       0.64873    0.60946    1.14863   1.00
H2       0.61227    0.58198    0.89955   1.00
H2       0.61670    0.57179    1.09098   1.00
H2       0.65524    0.58657    0.92725   1.00
H2       0.61380    0.61594    1.06494   1.00
H2       0.61002    0.60098    0.94745   1.00
H2       0.63737    0.57519    1.04385   1.00
H2       0.59544    0.68780    0.88042   1.00
H2       0.72307    0.57485    1.11383   1.00
H2       0.57916    0.64007    0.87025   1.00
H2       0.67907    0.54930    1.12149   1.00
H2       0.57305    0.65973    0.91739   1.00
H2       0.70112    0.54901    1.07502   1.00
C4       0.74751    0.98025    0.75410   1.00
C4       0.74597    1.02191    0.75424   1.00
C3       0.77672    0.95897    0.77468   1.00
C3       0.77090    1.04504    0.77817   1.00
C3       0.71904    0.95854    0.73266   1.00
C3       0.71859    1.04170    0.72974   1.00
C2       0.74953    0.89595    0.75540   1.00
C2       0.74420    1.10622    0.75314   1.00
C3       0.77764    0.91811    0.77552   1.00
C3       0.77023    1.08591    0.77754   1.00
C3       0.72087    0.91696    0.73445   1.00
C3       0.71900    1.08336    0.72980   1.00
H1       0.79864    0.97237    0.78951   1.00
H1       0.79021    1.03306    0.79724   1.00
C5       0.68991    0.97835    0.71006   1.00
C5       0.69164    1.01998    0.70622   1.00
H1       0.79937    0.90451    0.79103   1.00
H1       0.78907    1.10091    0.79539   1.00
H1       0.70098    0.90052    0.71981   1.00
H1       0.70015    1.09848    0.71257   1.00
C6       0.65752    0.95515    0.69095   1.00
C6       0.66573    1.04119    0.67739   1.00
H2       0.64675    0.93345    0.71155   1.00
H2       0.68297    1.06310    0.66211   1.00
H2       0.63165    0.97286    0.68618   1.00
H2       0.65680    1.02228    0.65354   1.00
C6       0.67000    0.93606    0.65129   1.00
C6       0.62846    1.05942    0.69666   1.00
H2       0.69890    0.92292    0.65439   1.00
H2       0.63652    1.07383    0.72396   1.00
C6       0.64218    0.90459    0.63333   1.00
C6       0.60422    1.08911    0.67180   1.00
H2       0.67367    0.95949    0.62998   1.00
H2       0.60923    1.03546    0.70518   1.00
C6       0.64026    0.86735    0.65900   1.00
C6       0.62750    1.12708    0.66370   1.00
C6       0.60038    0.92074    0.62734   1.00
C6       0.59097    1.07107    0.63253   1.00
C6       0.65841    0.89245    0.59280   1.00
C6       0.56711    1.10054    0.69516   1.00
H2       0.66940    0.85558    0.66431   1.00
H2       0.63783    1.14020    0.69085   1.00
H2       0.62685    0.87330    0.68719   1.00
H2       0.65280    1.12154    0.64529   1.00
H2       0.62299    0.84459    0.64494   1.00
H2       0.60946    1.14863    0.64873   1.00
H2       0.58198    0.89955    0.61227   1.00
H2       0.57179    1.09098    0.61670   1.00
H2       0.58657    0.92725    0.65524   1.00
H2       0.61594    1.06494    0.61380   1.00
H2       0.60098    0.94745    0.61002   1.00
H2       0.57519    1.04385    0.63737   1.00
H2       0.68780    0.88042    0.59544   1.00
H2       0.57485    1.11383    0.72307   1.00
H2       0.64007    0.87025    0.57916   1.00
H2       0.54930    1.12149    0.67907   1.00
H2       0.65973    0.91739    0.57305   1.00
H2       0.54901    1.07502    0.70112   1.00
C4       0.51975    0.75410    0.75249   1.00
C4       0.47809    0.75424    0.75403   1.00
C3       0.54103    0.77468    0.72328   1.00
C3       0.45496    0.77817    0.72910   1.00
C3       0.54146    0.73266    0.78096   1.00
C3       0.45830    0.72974    0.78141   1.00
C2       0.60405    0.75540    0.75047   1.00
C2       0.39378    0.75314    0.75580   1.00
C3       0.58189    0.77552    0.72236   1.00
C3       0.41409    0.77754    0.72977   1.00
C3       0.58304    0.73445    0.77913   1.00
C3       0.41664    0.72980    0.78100   1.00
H1       0.52763    0.78951    0.70136   1.00
H1       0.46694    0.79724    0.70979   1.00
C5       0.52165    0.71006    0.81009   1.00
C5       0.48002    0.70622    0.80836   1.00
H1       0.59549    0.79103    0.70063   1.00
H1       0.39909    0.79539    0.71093   1.00
H1       0.59948    0.71981    0.79902   1.00
H1       0.40152    0.71257    0.79985   1.00
C6       0.54485    0.69095    0.84248   1.00
C6       0.45881    0.67739    0.83427   1.00
H2       0.56655    0.71155    0.85325   1.00
H2       0.43690    0.66211    0.81703   1.00
H2       0.52714    0.68618    0.86835   1.00
H2       0.47772    0.65354    0.84320   1.00
C6       0.56394    0.65129    0.83000   1.00
C6       0.44058    0.69666    0.87154   1.00
H2       0.57708    0.65439    0.80110   1.00
H2       0.42617    0.72396    0.86348   1.00
C6       0.59541    0.63333    0.85782   1.00
C6       0.41089    0.67180    0.89578   1.00
H2       0.54051    0.62998    0.82633   1.00
H2       0.46454    0.70518    0.89077   1.00
C6       0.63265    0.65900    0.85974   1.00
C6       0.37292    0.66370    0.87250   1.00
C6       0.57926    0.62734    0.89962   1.00
C6       0.42893    0.63253    0.90903   1.00
C6       0.60755    0.59280    0.84159   1.00
C6       0.39946    0.69516    0.93289   1.00
H2       0.64442    0.66431    0.83060   1.00
H2       0.35980    0.69085    0.86217   1.00
H2       0.62670    0.68719    0.87315   1.00
H2       0.37846    0.64529    0.84720   1.00
H2       0.65541    0.64494    0.87701   1.00
H2       0.35137    0.64873    0.89054   1.00
H2       0.60045    0.61227    0.91802   1.00
H2       0.40902    0.61670    0.92821   1.00
H2       0.57275    0.65524    0.91343   1.00
H2       0.43506    0.61380    0.88406   1.00
H2       0.55255    0.61002    0.89902   1.00
H2       0.45615    0.63737    0.92481   1.00
H2       0.61958    0.59544    0.81220   1.00
H2       0.38617    0.72307    0.92515   1.00
H2       0.62975    0.57916    0.85993   1.00
H2       0.37851    0.67907    0.95070   1.00
H2       0.58261    0.57305    0.84027   1.00
H2       0.42498    0.70112    0.95099   1.00
C4       0.98025    0.75410    0.74751   1.00
C4       1.02191    0.75424    0.74597   1.00
C3       0.95897    0.77468    0.77672   1.00
C3       1.04504    0.77817    0.77090   1.00
C3       0.95854    0.73266    0.71904   1.00
C3       1.04170    0.72974    0.71859   1.00
C2       0.89595    0.75540    0.74953   1.00
C2       1.10622    0.75314    0.74420   1.00
C3       0.91811    0.77552    0.77764   1.00
C3       1.08591    0.77754    0.77023   1.00
C3       0.91696    0.73445    0.72087   1.00
C3       1.08336    0.72980    0.71900   1.00
H1       0.97237    0.78951    0.79864   1.00
H1       1.03306    0.79724    0.79021   1.00
C5       0.97835    0.71006    0.68991   1.00
C5       1.01998    0.70622    0.69164   1.00
H1       0.90451    0.79103    0.79937   1.00
H1       1.10091    0.79539    0.78907   1.00
H1       0.90052    0.71981    0.70098   1.00
H1       1.09848    0.71257    0.70015   1.00
C6       0.95515    0.69095    0.65752   1.00
C6       1.04119    0.67739    0.66573   1.00
H2       0.93345    0.71155    0.64675   1.00
H2       1.06310    0.66211    0.68297   1.00
H2       0.97286    0.68618    0.63165   1.00
H2       1.02228    0.65354    0.65680   1.00
C6       0.93606    0.65129    0.67000   1.00
C6       1.05942    0.69666    0.62846   1.00
H2       0.92292    0.65439    0.69890   1.00
H2       1.07383    0.72396    0.63652   1.00
C6       0.90459    0.63333    0.64218   1.00
C6       1.08911    0.67180    0.60422   1.00
H2       0.95949    0.62998    0.67367   1.00
H2       1.03546    0.70518    0.60923   1.00
C6       0.86735    0.65900    0.64026   1.00
C6       1.12708    0.66370    0.62750   1.00
C6       0.92074    0.62734    0.60038   1.00
C6       1.07107    0.63253    0.59097   1.00
C6       0.89245    0.59280    0.65841   1.00
C6       1.10054    0.69516    0.56711   1.00
H2       0.85558    0.66431    0.66940   1.00
H2       1.14020    0.69085    0.63783   1.00
H2       0.87330    0.68719    0.62685   1.00
H2       1.12154    0.64529    0.65280   1.00
H2       0.84459    0.64494    0.62299   1.00
H2       1.14863    0.64873    0.60946   1.00
H2       0.89955    0.61227    0.58198   1.00
H2       1.09098    0.61670    0.57179   1.00
H2       0.92725    0.65524    0.58657   1.00
H2       1.06494    0.61380    0.61594   1.00
H2       0.94745    0.61002    0.60098   1.00
H2       1.04385    0.63737    0.57519   1.00
H2       0.88042    0.59544    0.68780   1.00
H2       1.11383    0.72307    0.57485   1.00
H2       0.87025    0.57916    0.64007   1.00
H2       1.12149    0.67907    0.54930   1.00
H2       0.91739    0.57305    0.65973   1.00
H2       1.07502    0.70112    0.54901   1.00
C4       0.75249    0.51975    0.75410   1.00
C4       0.75403    0.47809    0.75424   1.00
C3       0.72328    0.54103    0.77468   1.00
C3       0.72910    0.45496    0.77817   1.00
C3       0.78096    0.54146    0.73266   1.00
C3       0.78141    0.45830    0.72974   1.00
C2       0.75047    0.60405    0.75540   1.00
C2       0.75580    0.39378    0.75314   1.00
C3       0.72236    0.58189    0.77552   1.00
C3       0.72977    0.41409    0.77754   1.00
C3       0.77913    0.58304    0.73445   1.00
C3       0.78100    0.41664    0.72980   1.00
H1       0.70136    0.52763    0.78951   1.00
H1       0.70979    0.46694    0.79724   1.00
C5       0.81009    0.52165    0.71006   1.00
C5       0.80836    0.48002    0.70622   1.00
H1       0.70063    0.59549    0.79103   1.00
H1       0.71093    0.39909    0.79539   1.00
H1       0.79902    0.59948    0.71981   1.00
H1       0.79985    0.40152    0.71257   1.00
C6       0.84248    0.54485    0.69095   1.00
C6       0.83427    0.45881    0.67739   1.00
H2       0.85325    0.56655    0.71155   1.00
H2       0.81703    0.43690    0.66211   1.00
H2       0.86835    0.52714    0.68618   1.00
H2       0.84320    0.47772    0.65354   1.00
C6       0.83000    0.56394    0.65129   1.00
C6       0.87154    0.44058    0.69666   1.00
H2       0.80110    0.57708    0.65439   1.00
H2       0.86348    0.42617    0.72396   1.00
C6       0.85782    0.59541    0.63333   1.00
C6       0.89578    0.41089    0.67180   1.00
H2       0.82633    0.54051    0.62998   1.00
H2       0.89077    0.46454    0.70518   1.00
C6       0.85974    0.63265    0.65900   1.00
C6       0.87250    0.37292    0.66370   1.00
C6       0.89962    0.57926    0.62734   1.00
C6       0.90903    0.42893    0.63253   1.00
C6       0.84159    0.60755    0.59280   1.00
C6       0.93289    0.39946    0.69516   1.00
H2       0.83060    0.64442    0.66431   1.00
H2       0.86217    0.35980    0.69085   1.00
H2       0.87315    0.62670    0.68719   1.00
H2       0.84720    0.37846    0.64529   1.00
H2       0.87701    0.65541    0.64494   1.00
H2       0.89054    0.35137    0.64873   1.00
H2       0.91802    0.60045    0.61227   1.00
H2       0.92821    0.40902    0.61670   1.00
H2       0.91343    0.57275    0.65524   1.00
H2       0.88406    0.43506    0.61380   1.00
H2       0.89902    0.55255    0.61002   1.00
H2       0.92481    0.45615    0.63737   1.00
H2       0.81220    0.61958    0.59544   1.00
H2       0.92515    0.38617    0.72307   1.00
H2       0.85993    0.62975    0.57916   1.00
H2       0.95070    0.37851    0.67907   1.00
H2       0.84027    0.58261    0.57305   1.00
H2       0.95099    0.42498    0.70112   1.00
C4       0.75410    0.75249    0.51975   1.00
C4       0.75424    0.75403    0.47809   1.00
C3       0.77468    0.72328    0.54103   1.00
C3       0.77817    0.72910    0.45496   1.00
C3       0.73266    0.78096    0.54146   1.00
C3       0.72974    0.78141    0.45830   1.00
C2       0.75540    0.75047    0.60405   1.00
C2       0.75314    0.75580    0.39378   1.00
C3       0.77552    0.72236    0.58189   1.00
C3       0.77754    0.72977    0.41409   1.00
C3       0.73445    0.77913    0.58304   1.00
C3       0.72980    0.78100    0.41664   1.00
H1       0.78951    0.70136    0.52763   1.00
H1       0.79724    0.70979    0.46694   1.00
C5       0.71006    0.81009    0.52165   1.00
C5       0.70622    0.80836    0.48002   1.00
H1       0.79103    0.70063    0.59549   1.00
H1       0.79539    0.71093    0.39909   1.00
H1       0.71981    0.79902    0.59948   1.00
H1       0.71257    0.79985    0.40152   1.00
C6       0.69095    0.84248    0.54485   1.00
C6       0.67739    0.83427    0.45881   1.00
H2       0.71155    0.85325    0.56655   1.00
H2       0.66211    0.81703    0.43690   1.00
H2       0.68618    0.86835    0.52714   1.00
H2       0.65354    0.84320    0.47772   1.00
C6       0.65129    0.83000    0.56394   1.00
C6       0.69666    0.87154    0.44058   1.00
H2       0.65439    0.80110    0.57708   1.00
H2       0.72396    0.86348    0.42617   1.00
C6       0.63333    0.85782    0.59541   1.00
C6       0.67180    0.89578    0.41089   1.00
H2       0.62998    0.82633    0.54051   1.00
H2       0.70518    0.89077    0.46454   1.00
C6       0.65900    0.85974    0.63265   1.00
C6       0.66370    0.87250    0.37292   1.00
C6       0.62734    0.89962    0.57926   1.00
C6       0.63253    0.90903    0.42893   1.00
C6       0.59280    0.84159    0.60755   1.00
C6       0.69516    0.93289    0.39946   1.00
H2       0.66431    0.83060    0.64442   1.00
H2       0.69085    0.86217    0.35980   1.00
H2       0.68719    0.87315    0.62670   1.00
H2       0.64529    0.84720    0.37846   1.00
H2       0.64494    0.87701    0.65541   1.00
H2       0.64873    0.89054    0.35137   1.00
H2       0.61227    0.91802    0.60045   1.00
H2       0.61670    0.92821    0.40902   1.00
H2       0.65524    0.91343    0.57275   1.00
H2       0.61380    0.88406    0.43506   1.00
H2       0.61002    0.89902    0.55255   1.00
H2       0.63737    0.92481    0.45615   1.00
H2       0.59544    0.81220    0.61958   1.00
H2       0.72307    0.92515    0.38617   1.00
H2       0.57916    0.85993    0.62975   1.00
H2       0.67907    0.95070    0.37851   1.00
H2       0.57305    0.84027    0.58261   1.00
H2       0.70112    0.95099    0.42498   1.00
C4       0.25410    0.24751    0.98025   1.00
C4       0.25424    0.24597    1.02191   1.00
C3       0.27468    0.27672    0.95897   1.00
C3       0.27817    0.27090    1.04504   1.00
C3       0.23266    0.21904    0.95854   1.00
C3       0.22974    0.21859    1.04170   1.00
C2       0.25540    0.24953    0.89595   1.00
C2       0.25314    0.24420    1.10622   1.00
C3       0.27552    0.27764    0.91811   1.00
C3       0.27754    0.27023    1.08591   1.00
C3       0.23445    0.22087    0.91696   1.00
C3       0.22980    0.21900    1.08336   1.00
H1       0.28951    0.29864    0.97237   1.00
H1       0.29724    0.29021    1.03306   1.00
C5       0.21006    0.18991    0.97835   1.00
C5       0.20622    0.19164    1.01998   1.00
H1       0.29103    0.29937    0.90451   1.00
H1       0.29539    0.28907    1.10091   1.00
H1       0.21981    0.20098    0.90052   1.00
H1       0.21257    0.20015    1.09848   1.00
C6       0.19095    0.15752    0.95515   1.00
C6       0.17739    0.16573    1.04119   1.00
H2       0.21155    0.14675    0.93345   1.00
H2       0.16211    0.18297    1.06310   1.00
H2       0.18618    0.13165    0.97286   1.00
H2       0.15354    0.15680    1.02228   1.00
C6       0.15129    0.17000    0.93606   1.00
C6       0.19666    0.12846    1.05942   1.00
H2       0.15439    0.19890    0.92292   1.00
H2       0.22396    0.13652    1.07383   1.00
C6       0.13333    0.14218    0.90459   1.00
C6       0.17180    0.10422    1.08911   1.00
H2       0.12998    0.17367    0.95949   1.00
H2       0.20518    0.10923    1.03546   1.00
C6       0.15900    0.14026    0.86735   1.00
C6       0.16370    0.12750    1.12708   1.00
C6       0.12734    0.10038    0.92074   1.00
C6       0.13253    0.09097    1.07107   1.00
C6       0.09280    0.15841    0.89245   1.00
C6       0.19516    0.06711    1.10054   1.00
H2       0.16431    0.16940    0.85558   1.00
H2       0.19085    0.13783    1.14020   1.00
H2       0.18719    0.12685    0.87330   1.00
H2       0.14529    0.15280    1.12154   1.00
H2       0.14494    0.12299    0.84459   1.00
H2       0.14873    0.10946    1.14863   1.00
H2       0.11227    0.08198    0.89955   1.00
H2       0.11670    0.07179    1.09098   1.00
H2       0.15524    0.08657    0.92725   1.00
H2       0.11380    0.11594    1.06494   1.00
H2       0.11002    0.10098    0.94745   1.00
H2       0.13737    0.07519    1.04385   1.00
H2       0.09544    0.18780    0.88042   1.00
H2       0.22307    0.07485    1.11383   1.00
H2       0.07916    0.14007    0.87025   1.00
H2       0.17907    0.04930    1.12149   1.00
H2       0.07305    0.15973    0.91739   1.00
H2       0.20112    0.04901    1.07502   1.00
C4       0.24751    0.48025    0.75410   1.00
C4       0.24597    0.52191    0.75424   1.00
C3       0.27672    0.45897    0.77468   1.00
C3       0.27090    0.54504    0.77817   1.00
C3       0.21904    0.45854    0.73266   1.00
C3       0.21859    0.54170    0.72974   1.00
C2       0.24953    0.39595    0.75540   1.00
C2       0.24420    0.60622    0.75314   1.00
C3       0.27764    0.41811    0.77552   1.00
C3       0.27023    0.58591    0.77754   1.00
C3       0.22087    0.41696    0.73445   1.00
C3       0.21900    0.58336    0.72980   1.00
H1       0.29864    0.47237    0.78951   1.00
H1       0.29021    0.53306    0.79724   1.00
C5       0.18991    0.47835    0.71006   1.00
C5       0.19164    0.51998    0.70622   1.00
H1       0.29937    0.40451    0.79103   1.00
H1       0.28907    0.60091    0.79539   1.00
H1       0.20098    0.40052    0.71981   1.00
H1       0.20015    0.59848    0.71257   1.00
C6       0.15752    0.45515    0.69095   1.00
C6       0.16573    0.54119    0.67739   1.00
H2       0.14675    0.43345    0.71155   1.00
H2       0.18297    0.56310    0.66211   1.00
H2       0.13165    0.47286    0.68618   1.00
H2       0.15680    0.52228    0.65354   1.00
C6       0.17000    0.43606    0.65129   1.00
C6       0.12846    0.55942    0.69666   1.00
H2       0.19890    0.42292    0.65439   1.00
H2       0.13652    0.57383    0.72396   1.00
C6       0.14218    0.40459    0.63333   1.00
C6       0.10422    0.58911    0.67180   1.00
H2       0.17367    0.45949    0.62998   1.00
H2       0.10923    0.53546    0.70518   1.00
C6       0.14026    0.36735    0.65900   1.00
C6       0.12750    0.62708    0.66370   1.00
C6       0.10038    0.42074    0.62734   1.00
C6       0.09097    0.57107    0.63253   1.00
C6       0.15841    0.39245    0.59280   1.00
C6       0.06711    0.60054    0.69516   1.00
H2       0.16940    0.35558    0.66431   1.00
H2       0.13783    0.64020    0.69085   1.00
H2       0.12685    0.37330    0.68719   1.00
H2       0.15280    0.62154    0.64529   1.00
H2       0.12299    0.34459    0.64494   1.00
H2       0.10946    0.64863    0.64873   1.00
H2       0.08198    0.39955    0.61227   1.00
H2       0.07179    0.59098    0.61670   1.00
H2       0.08657    0.42725    0.65524   1.00
H2       0.11594    0.56494    0.61380   1.00
H2       0.10098    0.44745    0.61002   1.00
H2       0.07519    0.54385    0.63737   1.00
H2       0.18780    0.38042    0.59544   1.00
H2       0.07485    0.61383    0.72307   1.00
H2       0.14007    0.37025    0.57916   1.00
H2       0.04930    0.62149    0.67907   1.00
H2       0.15973    0.41739    0.57305   1.00
H2       0.04901    0.57502    0.70112   1.00
C4       0.01975    0.25410    0.75249   1.00
C4       -0.02191   0.25424    0.75403   1.00
C3       0.04103    0.27468    0.72328   1.00
C3       -0.04504   0.27817    0.72910   1.00
C3       0.04146    0.23266    0.78096   1.00
C3       -0.04170   0.22974    0.78141   1.00
C2       0.10405    0.25540    0.75047   1.00
C2       -0.10622   0.25314    0.75580   1.00
C3       0.08189    0.27552    0.72236   1.00
C3       -0.08591   0.27754    0.72977   1.00
C3       0.08304    0.23445    0.77913   1.00
C3       -0.08336   0.22980    0.78100   1.00
H1       0.02763    0.28951    0.70136   1.00
H1       -0.03306   0.29724    0.70979   1.00
C5       0.02165    0.21006    0.81009   1.00
C5       -0.01998   0.20622    0.80836   1.00
H1       0.09549    0.29103    0.70063   1.00
H1       -0.10091   0.29539    0.71093   1.00
H1       0.09948    0.21981    0.79902   1.00
H1       -0.09848   0.21257    0.79985   1.00
C6       0.04485    0.19095    0.84248   1.00
C6       -0.04119   0.17739    0.83427   1.00
H2       0.06655    0.21155    0.85325   1.00
H2       -0.06310   0.16211    0.81703   1.00
H2       0.02714    0.18618    0.86835   1.00
H2       -0.02228   0.15354    0.84320   1.00
C6       0.06394    0.15129    0.83000   1.00
C6       -0.05942   0.19666    0.87154   1.00
H2       0.07708    0.15439    0.80110   1.00
H2       -0.07383   0.22396    0.86348   1.00
C6       0.09541    0.13333    0.85782   1.00
C6       -0.08911   0.17180    0.89578   1.00
H2       0.04051    0.12998    0.82633   1.00
H2       -0.03546   0.20518    0.89077   1.00
C6       0.13265    0.15900    0.85974   1.00
C6       -0.12708   0.16370    0.87250   1.00
C6       0.07926    0.12734    0.89962   1.00
C6       -0.07107   0.13253    0.90903   1.00
C6       0.10755    0.09280    0.84159   1.00
C6       -0.10054   0.19516    0.93289   1.00
H2       0.14442    0.16431    0.83060   1.00
H2       -0.14020   0.19085    0.86217   1.00
H2       0.12670    0.18719    0.87315   1.00
H2       -0.12154   0.14529    0.84720   1.00
H2       0.15541    0.14494    0.87701   1.00
H2       -0.14863   0.14873    0.89054   1.00
H2       0.10045    0.11227    0.91802   1.00
H2       -0.09098   0.11670    0.92821   1.00
H2       0.07275    0.15524    0.91343   1.00
H2       -0.06494   0.11380    0.88406   1.00
H2       0.05255    0.11002    0.89902   1.00
H2       -0.04385   0.13737    0.92481   1.00
H2       0.11958    0.09544    0.81220   1.00
H2       -0.11383   0.22307    0.92515   1.00
H2       0.12975    0.07916    0.85993   1.00
H2       -0.12149   0.17907    0.95070   1.00
H2       0.08261    0.07305    0.84027   1.00
H2       -0.07502   0.20112    0.95099   1.00
C4       0.48025    0.25410    0.74751   1.00
C4       0.52191    0.25424    0.74597   1.00
C3       0.45897    0.27468    0.77672   1.00
C3       0.54504    0.27817    0.77090   1.00
C3       0.45854    0.23266    0.71904   1.00
C3       0.54170    0.22974    0.71859   1.00
C2       0.39595    0.25540    0.74953   1.00
C2       0.60622    0.25314    0.74420   1.00
C3       0.41811    0.27552    0.77764   1.00
C3       0.58591    0.27754    0.77023   1.00
C3       0.41696    0.23445    0.72087   1.00
C3       0.58336    0.22980    0.71900   1.00
H1       0.47237    0.28951    0.79864   1.00
H1       0.53306    0.29724    0.79021   1.00
C5       0.47835    0.21006    0.68991   1.00
C5       0.51998    0.20622    0.69164   1.00
H1       0.40451    0.29103    0.79937   1.00
H1       0.60091    0.29539    0.78907   1.00
H1       0.40052    0.21981    0.70098   1.00
H1       0.59848    0.21257    0.70015   1.00
C6       0.45515    0.19095    0.65752   1.00
C6       0.54119    0.17739    0.66573   1.00
H2       0.43345    0.21155    0.64675   1.00
H2       0.56310    0.16211    0.68297   1.00
H2       0.47286    0.18618    0.63165   1.00
H2       0.52228    0.15354    0.65680   1.00
C6       0.43606    0.15129    0.67000   1.00
C6       0.55942    0.19666    0.62846   1.00
H2       0.42292    0.15439    0.69890   1.00
H2       0.57383    0.22396    0.63652   1.00
C6       0.40459    0.13333    0.64218   1.00
C6       0.58911    0.17180    0.60422   1.00
H2       0.45949    0.12998    0.67367   1.00
H2       0.53546    0.20518    0.60923   1.00
C6       0.36735    0.15900    0.64026   1.00
C6       0.62708    0.16370    0.62750   1.00
C6       0.42074    0.12734    0.60038   1.00
C6       0.57107    0.13253    0.59097   1.00
C6       0.39245    0.09280    0.65841   1.00
C6       0.60054    0.19516    0.56711   1.00
H2       0.35558    0.16431    0.66940   1.00
H2       0.64020    0.19085    0.63783   1.00
H2       0.37330    0.18719    0.62685   1.00
H2       0.62154    0.14529    0.65280   1.00
H2       0.34459    0.14494    0.62299   1.00
H2       0.64863    0.14873    0.60946   1.00
H2       0.39955    0.11227    0.58198   1.00
H2       0.59098    0.11670    0.57179   1.00
H2       0.42725    0.15524    0.58657   1.00
H2       0.56494    0.11380    0.61594   1.00
H2       0.44745    0.11002    0.60098   1.00
H2       0.54385    0.13737    0.57519   1.00
H2       0.38042    0.09544    0.68780   1.00
H2       0.61383    0.22307    0.57485   1.00
H2       0.37025    0.07916    0.64007   1.00
H2       0.62149    0.17907    0.54930   1.00
H2       0.41739    0.07305    0.65973   1.00
H2       0.57502    0.20112    0.54901   1.00
C4       0.25249    0.01975    0.75410   1.00
C4       0.25403    -0.02191   0.75424   1.00
C3       0.22328    0.04103    0.77468   1.00
C3       0.22910    -0.04504   0.77817   1.00
C3       0.28096    0.04146    0.73266   1.00
C3       0.28141    -0.04170   0.72974   1.00
C2       0.25047    0.10405    0.75540   1.00
C2       0.25580    -0.10622   0.75314   1.00
C3       0.22236    0.08189    0.77552   1.00
C3       0.22977    -0.08591   0.77754   1.00
C3       0.27913    0.08304    0.73445   1.00
C3       0.28100    -0.08336   0.72980   1.00
H1       0.20136    0.02763    0.78951   1.00
H1       0.20979    -0.03306   0.79724   1.00
C5       0.31009    0.02165    0.71006   1.00
C5       0.30836    -0.01998   0.70622   1.00
H1       0.20063    0.09549    0.79103   1.00
H1       0.21093    -0.10091   0.79539   1.00
H1       0.29902    0.09948    0.71981   1.00
H1       0.29985    -0.09848   0.71257   1.00
C6       0.34248    0.04485    0.69095   1.00
C6       0.33427    -0.04119   0.67739   1.00
H2       0.35325    0.06655    0.71155   1.00
H2       0.31703    -0.06310   0.66211   1.00
H2       0.36835    0.02714    0.68618   1.00
H2       0.34320    -0.02228   0.65354   1.00
C6       0.33000    0.06394    0.65129   1.00
C6       0.37154    -0.05942   0.69666   1.00
H2       0.30110    0.07708    0.65439   1.00
H2       0.36348    -0.07383   0.72396   1.00
C6       0.35782    0.09541    0.63333   1.00
C6       0.39578    -0.08911   0.67180   1.00
H2       0.32633    0.04051    0.62998   1.00
H2       0.39077    -0.03546   0.70518   1.00
C6       0.35974    0.13265    0.65900   1.00
C6       0.37250    -0.12708   0.66370   1.00
C6       0.39962    0.07926    0.62734   1.00
C6       0.40903    -0.07107   0.63253   1.00
C6       0.34159    0.10755    0.59280   1.00
C6       0.43289    -0.10054   0.69516   1.00
H2       0.33060    0.14442    0.66431   1.00
H2       0.36217    -0.14020   0.69085   1.00
H2       0.37315    0.12670    0.68719   1.00
H2       0.34720    -0.12154   0.64529   1.00
H2       0.37701    0.15541    0.64494   1.00
H2       0.39054    -0.14863   0.64873   1.00
H2       0.41802    0.10045    0.61227   1.00
H2       0.42821    -0.09098   0.61670   1.00
H2       0.41343    0.07275    0.65524   1.00
H2       0.38406    -0.06494   0.61380   1.00
H2       0.39902    0.05255    0.61002   1.00
H2       0.42481    -0.04385   0.63737   1.00
H2       0.31220    0.11958    0.59544   1.00
H2       0.42515    -0.11383   0.72307   1.00
H2       0.35993    0.12975    0.57916   1.00
H2       0.45070    -0.12149   0.67907   1.00
H2       0.34027    0.08261    0.57305   1.00
H2       0.45099    -0.07502   0.70112   1.00
C4       0.25410    0.25249    0.51975   1.00
C4       0.25424    0.25403    0.47809   1.00
C3       0.27468    0.22328    0.54103   1.00
C3       0.27817    0.22910    0.45496   1.00
C3       0.23266    0.28096    0.54146   1.00
C3       0.22974    0.28141    0.45830   1.00
C2       0.25540    0.25047    0.60405   1.00
C2       0.25314    0.25580    0.39378   1.00
C3       0.27552    0.22236    0.58189   1.00
C3       0.27754    0.22977    0.41409   1.00
C3       0.23445    0.27913    0.58304   1.00
C3       0.22980    0.28100    0.41664   1.00
H1       0.28951    0.20136    0.52763   1.00
H1       0.29724    0.20979    0.46694   1.00
C5       0.21006    0.31009    0.52165   1.00
C5       0.20622    0.30836    0.48002   1.00
H1       0.29103    0.20063    0.59549   1.00
H1       0.29539    0.21093    0.39909   1.00
H1       0.21981    0.29902    0.59948   1.00
H1       0.21257    0.29985    0.40152   1.00
C6       0.19095    0.34248    0.54485   1.00
C6       0.17739    0.33427    0.45881   1.00
H2       0.21155    0.35325    0.56655   1.00
H2       0.16211    0.31703    0.43690   1.00
H2       0.18618    0.36835    0.52714   1.00
H2       0.15354    0.34320    0.47772   1.00
C6       0.15129    0.33000    0.56394   1.00
C6       0.19666    0.37154    0.44058   1.00
H2       0.15439    0.30110    0.57708   1.00
H2       0.22396    0.36348    0.42617   1.00
C6       0.13333    0.35782    0.59541   1.00
C6       0.17180    0.39578    0.41089   1.00
H2       0.12998    0.32633    0.54051   1.00
H2       0.20518    0.39077    0.46454   1.00
C6       0.15900    0.35974    0.63265   1.00
C6       0.16370    0.37250    0.37292   1.00
C6       0.12734    0.39962    0.57926   1.00
C6       0.13253    0.40903    0.42893   1.00
C6       0.09280    0.34159    0.60755   1.00
C6       0.19516    0.43289    0.39946   1.00
H2       0.16431    0.33060    0.64442   1.00
H2       0.19085    0.36217    0.35980   1.00
H2       0.18719    0.37315    0.62670   1.00
H2       0.14529    0.34720    0.37846   1.00
H2       0.14494    0.37701    0.65541   1.00
H2       0.14873    0.39054    0.35137   1.00
H2       0.11227    0.41802    0.60045   1.00
H2       0.11670    0.42821    0.40902   1.00
H2       0.15524    0.41343    0.57275   1.00
H2       0.11380    0.38406    0.43506   1.00
H2       0.11002    0.39902    0.55255   1.00
H2       0.13737    0.42481    0.45615   1.00
H2       0.09544    0.31220    0.61958   1.00
H2       0.22307    0.42515    0.38617   1.00
H2       0.07916    0.35993    0.62975   1.00
H2       0.17907    0.45070    0.37851   1.00
H2       0.07305    0.34027    0.58261   1.00
H2       0.20112    0.45099    0.42498   1.00
C4       0.25410    0.74751    0.48025   1.00
C4       0.25424    0.74597    0.52191   1.00
C3       0.27468    0.77672    0.45897   1.00
C3       0.27817    0.77090    0.54504   1.00
C3       0.23266    0.71904    0.45854   1.00
C3       0.22974    0.71859    0.54170   1.00
C2       0.25540    0.74953    0.39595   1.00
C2       0.25314    0.74420    0.60622   1.00
C3       0.27552    0.77764    0.41811   1.00
C3       0.27754    0.77023    0.58591   1.00
C3       0.23445    0.72087    0.41696   1.00
C3       0.22980    0.71900    0.58336   1.00
H1       0.28951    0.79864    0.47237   1.00
H1       0.29724    0.79021    0.53306   1.00
C5       0.21006    0.68991    0.47835   1.00
C5       0.20622    0.69164    0.51998   1.00
H1       0.29103    0.79937    0.40451   1.00
H1       0.29539    0.78907    0.60091   1.00
H1       0.21981    0.70098    0.40052   1.00
H1       0.21257    0.70015    0.59848   1.00
C6       0.19095    0.65752    0.45515   1.00
C6       0.17739    0.66573    0.54119   1.00
H2       0.21155    0.64675    0.43345   1.00
H2       0.16211    0.68297    0.56310   1.00
H2       0.18618    0.63165    0.47286   1.00
H2       0.15354    0.65680    0.52228   1.00
C6       0.15129    0.67000    0.43606   1.00
C6       0.19666    0.62846    0.55942   1.00
H2       0.15439    0.69890    0.42292   1.00
H2       0.22396    0.63652    0.57383   1.00
C6       0.13333    0.64218    0.40459   1.00
C6       0.17180    0.60422    0.58911   1.00
H2       0.12998    0.67367    0.45949   1.00
H2       0.20518    0.60923    0.53546   1.00
C6       0.15900    0.64026    0.36735   1.00
C6       0.16370    0.62750    0.62708   1.00
C6       0.12734    0.60038    0.42074   1.00
C6       0.13253    0.59097    0.57107   1.00
C6       0.09280    0.65841    0.39245   1.00
C6       0.19516    0.56711    0.60054   1.00
H2       0.16431    0.66940    0.35558   1.00
H2       0.19085    0.63783    0.64020   1.00
H2       0.18719    0.62685    0.37330   1.00
H2       0.14529    0.65280    0.62154   1.00
H2       0.14494    0.62299    0.34459   1.00
H2       0.14873    0.60946    0.64863   1.00
H2       0.11227    0.58198    0.39955   1.00
H2       0.11670    0.57179    0.59098   1.00
H2       0.15524    0.58657    0.42725   1.00
H2       0.11380    0.61594    0.56494   1.00
H2       0.11002    0.60098    0.44745   1.00
H2       0.13737    0.57519    0.54385   1.00
H2       0.09544    0.68780    0.38042   1.00
H2       0.22307    0.57485    0.61383   1.00
H2       0.07916    0.64007    0.37025   1.00
H2       0.17907    0.54930    0.62149   1.00
H2       0.07305    0.65973    0.41739   1.00
H2       0.20112    0.54901    0.57502   1.00
C4       0.24751    0.98025    0.25410   1.00
C4       0.24597    1.02191    0.25424   1.00
C3       0.27672    0.95897    0.27468   1.00
C3       0.27090    1.04504    0.27817   1.00
C3       0.21904    0.95854    0.23266   1.00
C3       0.21859    1.04170    0.22974   1.00
C2       0.24953    0.89595    0.25540   1.00
C2       0.24420    1.10622    0.25314   1.00
C3       0.27764    0.91811    0.27552   1.00
C3       0.27023    1.08591    0.27754   1.00
C3       0.22087    0.91696    0.23445   1.00
C3       0.21900    1.08336    0.22980   1.00
H1       0.29864    0.97237    0.28951   1.00
H1       0.29021    1.03306    0.29724   1.00
C5       0.18991    0.97835    0.21006   1.00
C5       0.19164    1.01998    0.20622   1.00
H1       0.29937    0.90451    0.29103   1.00
H1       0.28907    1.10091    0.29539   1.00
H1       0.20098    0.90052    0.21981   1.00
H1       0.20015    1.09848    0.21257   1.00
C6       0.15752    0.95515    0.19095   1.00
C6       0.16573    1.04119    0.17739   1.00
H2       0.14675    0.93345    0.21155   1.00
H2       0.18297    1.06310    0.16211   1.00
H2       0.13165    0.97286    0.18618   1.00
H2       0.15680    1.02228    0.15354   1.00
C6       0.17000    0.93606    0.15129   1.00
C6       0.12846    1.05942    0.19666   1.00
H2       0.19890    0.92292    0.15439   1.00
H2       0.13652    1.07383    0.22396   1.00
C6       0.14218    0.90459    0.13333   1.00
C6       0.10422    1.08911    0.17180   1.00
H2       0.17367    0.95949    0.12998   1.00
H2       0.10923    1.03546    0.20518   1.00
C6       0.14026    0.86735    0.15900   1.00
C6       0.12750    1.12708    0.16370   1.00
C6       0.10038    0.92074    0.12734   1.00
C6       0.09097    1.07107    0.13253   1.00
C6       0.15841    0.89245    0.09280   1.00
C6       0.06711    1.10054    0.19516   1.00
H2       0.16940    0.85558    0.16431   1.00
H2       0.13783    1.14020    0.19085   1.00
H2       0.12685    0.87330    0.18719   1.00
H2       0.15280    1.12154    0.14529   1.00
H2       0.12299    0.84459    0.14494   1.00
H2       0.10946    1.14863    0.14873   1.00
H2       0.08198    0.89955    0.11227   1.00
H2       0.07179    1.09098    0.11670   1.00
H2       0.08657    0.92725    0.15524   1.00
H2       0.11594    1.06494    0.11380   1.00
H2       0.10098    0.94745    0.11002   1.00
H2       0.07519    1.04385    0.13737   1.00
H2       0.18780    0.88042    0.09544   1.00
H2       0.07485    1.11383    0.22307   1.00
H2       0.14007    0.87025    0.07916   1.00
H2       0.04930    1.12149    0.17907   1.00
H2       0.15973    0.91739    0.07305   1.00
H2       0.04901    1.07502    0.20112   1.00
C4       0.01975    0.75410    0.25249   1.00
C4       -0.02191   0.75424    0.25403   1.00
C3       0.04103    0.77468    0.22328   1.00
C3       -0.04504   0.77817    0.22910   1.00
C3       0.04146    0.73266    0.28096   1.00
C3       -0.04170   0.72974    0.28141   1.00
C2       0.10405    0.75540    0.25047   1.00
C2       -0.10622   0.75314    0.25580   1.00
C3       0.08189    0.77552    0.22236   1.00
C3       -0.08591   0.77754    0.22977   1.00
C3       0.08304    0.73445    0.27913   1.00
C3       -0.08336   0.72980    0.28100   1.00
H1       0.02763    0.78951    0.20136   1.00
H1       -0.03306   0.79724    0.20979   1.00
C5       0.02165    0.71006    0.31009   1.00
C5       -0.01998   0.70622    0.30836   1.00
H1       0.09549    0.79103    0.20063   1.00
H1       -0.10091   0.79539    0.21093   1.00
H1       0.09948    0.71981    0.29902   1.00
H1       -0.09848   0.71257    0.29985   1.00
C6       0.04485    0.69095    0.34248   1.00
C6       -0.04119   0.67739    0.33427   1.00
H2       0.06655    0.71155    0.35325   1.00
H2       -0.06310   0.66211    0.31703   1.00
H2       0.02714    0.68618    0.36835   1.00
H2       -0.02228   0.65354    0.34320   1.00
C6       0.06394    0.65129    0.33000   1.00
C6       -0.05942   0.69666    0.37154   1.00
H2       0.07708    0.65439    0.30110   1.00
H2       -0.07383   0.72396    0.36348   1.00
C6       0.09541    0.63333    0.35782   1.00
C6       -0.08911   0.67180    0.39578   1.00
H2       0.04051    0.62998    0.32633   1.00
H2       -0.03546   0.70518    0.39077   1.00
C6       0.13265    0.65900    0.35974   1.00
C6       -0.12708   0.66370    0.37250   1.00
C6       0.07926    0.62734    0.39962   1.00
C6       -0.07107   0.63253    0.40903   1.00
C6       0.10755    0.59280    0.34159   1.00
C6       -0.10054   0.69516    0.43289   1.00
H2       0.14442    0.66431    0.33060   1.00
H2       -0.14020   0.69085    0.36217   1.00
H2       0.12670    0.68719    0.37315   1.00
H2       -0.12154   0.64529    0.34720   1.00
H2       0.15541    0.64494    0.37701   1.00
H2       -0.14863   0.64873    0.39054   1.00
H2       0.10045    0.61227    0.41802   1.00
H2       -0.09098   0.61670    0.42821   1.00
H2       0.07275    0.65524    0.41343   1.00
H2       -0.06494   0.61380    0.38406   1.00
H2       0.05255    0.61002    0.39902   1.00
H2       -0.04385   0.63737    0.42481   1.00
H2       0.11958    0.59544    0.31220   1.00
H2       -0.11383   0.72307    0.42515   1.00
H2       0.12975    0.57916    0.35993   1.00
H2       -0.12149   0.67907    0.45070   1.00
H2       0.08261    0.57305    0.34027   1.00
H2       -0.07502   0.70112    0.45099   1.00
C4       0.48025    0.75410    0.24751   1.00
C4       0.52191    0.75424    0.24597   1.00
C3       0.45897    0.77468    0.27672   1.00
C3       0.54504    0.77817    0.27090   1.00
C3       0.45854    0.73266    0.21904   1.00
C3       0.54170    0.72974    0.21859   1.00
C2       0.39595    0.75540    0.24953   1.00
C2       0.60622    0.75314    0.24420   1.00
C3       0.41811    0.77552    0.27764   1.00
C3       0.58591    0.77754    0.27023   1.00
C3       0.41696    0.73445    0.22087   1.00
C3       0.58336    0.72980    0.21900   1.00
H1       0.47237    0.78951    0.29864   1.00
H1       0.53306    0.79724    0.29021   1.00
C5       0.47835    0.71006    0.18991   1.00
C5       0.51998    0.70622    0.19164   1.00
H1       0.40451    0.79103    0.29937   1.00
H1       0.60091    0.79539    0.28907   1.00
H1       0.40052    0.71981    0.20098   1.00
H1       0.59848    0.71257    0.20015   1.00
C6       0.45515    0.69095    0.15752   1.00
C6       0.54119    0.67739    0.16573   1.00
H2       0.43345    0.71155    0.14675   1.00
H2       0.56310    0.66211    0.18297   1.00
H2       0.47286    0.68618    0.13165   1.00
H2       0.52228    0.65354    0.15680   1.00
C6       0.43606    0.65129    0.17000   1.00
C6       0.55942    0.69666    0.12846   1.00
H2       0.42292    0.65439    0.19890   1.00
H2       0.57383    0.72396    0.13652   1.00
C6       0.40459    0.63333    0.14218   1.00
C6       0.58911    0.67180    0.10422   1.00
H2       0.45949    0.62998    0.17367   1.00
H2       0.53546    0.70518    0.10923   1.00
C6       0.36735    0.65900    0.14026   1.00
C6       0.62708    0.66370    0.12750   1.00
C6       0.42074    0.62734    0.10038   1.00
C6       0.57107    0.63253    0.09097   1.00
C6       0.39245    0.59280    0.15841   1.00
C6       0.60054    0.69516    0.06711   1.00
H2       0.35558    0.66431    0.16940   1.00
H2       0.64020    0.69085    0.13783   1.00
H2       0.37330    0.68719    0.12685   1.00
H2       0.62154    0.64529    0.15280   1.00
H2       0.34459    0.64494    0.12299   1.00
H2       0.64863    0.64873    0.10946   1.00
H2       0.39955    0.61227    0.08198   1.00
H2       0.59098    0.61670    0.07179   1.00
H2       0.42725    0.65524    0.08657   1.00
H2       0.56494    0.61380    0.11594   1.00
H2       0.44745    0.61002    0.10098   1.00
H2       0.54385    0.63737    0.07519   1.00
H2       0.38042    0.59544    0.18780   1.00
H2       0.61383    0.72307    0.07485   1.00
H2       0.37025    0.57916    0.14007   1.00
H2       0.62149    0.67907    0.04930   1.00
H2       0.41739    0.57305    0.15973   1.00
H2       0.57502    0.70112    0.04901   1.00
C4       0.25249    0.51975    0.25410   1.00
C4       0.25403    0.47809    0.25424   1.00
C3       0.22328    0.54103    0.27468   1.00
C3       0.22910    0.45496    0.27817   1.00
C3       0.28096    0.54146    0.23266   1.00
C3       0.28141    0.45830    0.22974   1.00
C2       0.25047    0.60405    0.25540   1.00
C2       0.25580    0.39378    0.25314   1.00
C3       0.22236    0.58189    0.27552   1.00
C3       0.22977    0.41409    0.27754   1.00
C3       0.27913    0.58304    0.23445   1.00
C3       0.28100    0.41664    0.22980   1.00
H1       0.20136    0.52763    0.28951   1.00
H1       0.20979    0.46694    0.29724   1.00
C5       0.31009    0.52165    0.21006   1.00
C5       0.30836    0.48002    0.20622   1.00
H1       0.20063    0.59549    0.29103   1.00
H1       0.21093    0.39909    0.29539   1.00
H1       0.29902    0.59948    0.21981   1.00
H1       0.29985    0.40152    0.21257   1.00
C6       0.34248    0.54485    0.19095   1.00
C6       0.33427    0.45881    0.17739   1.00
H2       0.35325    0.56655    0.21155   1.00
H2       0.31703    0.43690    0.16211   1.00
H2       0.36835    0.52714    0.18618   1.00
H2       0.34320    0.47772    0.15354   1.00
C6       0.33000    0.56394    0.15129   1.00
C6       0.37154    0.44058    0.19666   1.00
H2       0.30110    0.57708    0.15439   1.00
H2       0.36348    0.42617    0.22396   1.00
C6       0.35782    0.59541    0.13333   1.00
C6       0.39578    0.41089    0.17180   1.00
H2       0.32633    0.54051    0.12998   1.00
H2       0.39077    0.46454    0.20518   1.00
C6       0.35974    0.63265    0.15900   1.00
C6       0.37250    0.37292    0.16370   1.00
C6       0.39962    0.57926    0.12734   1.00
C6       0.40903    0.42893    0.13253   1.00
C6       0.34159    0.60755    0.09280   1.00
C6       0.43289    0.39946    0.19516   1.00
H2       0.33060    0.64442    0.16431   1.00
H2       0.36217    0.35980    0.19085   1.00
H2       0.37315    0.62670    0.18719   1.00
H2       0.34720    0.37846    0.14529   1.00
H2       0.37701    0.65541    0.14494   1.00
H2       0.39054    0.35137    0.14873   1.00
H2       0.41802    0.60045    0.11227   1.00
H2       0.42821    0.40902    0.11670   1.00
H2       0.41343    0.57275    0.15524   1.00
H2       0.38406    0.43506    0.11380   1.00
H2       0.39902    0.55255    0.11002   1.00
H2       0.42481    0.45615    0.13737   1.00
H2       0.31220    0.61958    0.09544   1.00
H2       0.42515    0.38617    0.22307   1.00
H2       0.35993    0.62975    0.07916   1.00
H2       0.45070    0.37851    0.17907   1.00
H2       0.34027    0.58261    0.07305   1.00
H2       0.45099    0.42498    0.20112   1.00
C4       0.25410    0.75249    0.01975   1.00
C4       0.25424    0.75403    -0.02191   1.00
C3       0.27468    0.72328    0.04103   1.00
C3       0.27817    0.72910    -0.04504   1.00
C3       0.23266    0.78096    0.04146   1.00
C3       0.22974    0.78141    -0.04170   1.00
C2       0.25540    0.75047    0.10405   1.00
C2       0.25314    0.75580    -0.10622   1.00
C3       0.27552    0.72236    0.08189   1.00
C3       0.27754    0.72977    -0.08591   1.00
C3       0.23445    0.77913    0.08304   1.00
C3       0.22980    0.78100    -0.08336   1.00
H1       0.28951    0.70136    0.02763   1.00
H1       0.29724    0.70979    -0.03306   1.00
C5       0.21006    0.81009    0.02165   1.00
C5       0.20622    0.80836    -0.01998   1.00
H1       0.29103    0.70063    0.09549   1.00
H1       0.29539    0.71093    -0.10091   1.00
H1       0.21981    0.79902    0.09948   1.00
H1       0.21257    0.79985    -0.09848   1.00
C6       0.19095    0.84248    0.04485   1.00
C6       0.17739    0.83427    -0.04119   1.00
H2       0.21155    0.85325    0.06655   1.00
H2       0.16211    0.81703    -0.06310   1.00
H2       0.18618    0.86835    0.02714   1.00
H2       0.15354    0.84320    -0.02228   1.00
C6       0.15129    0.83000    0.06394   1.00
C6       0.19666    0.87154    -0.05942   1.00
H2       0.15439    0.80110    0.07708   1.00
H2       0.22396    0.86348    -0.07383   1.00
C6       0.13333    0.85782    0.09541   1.00
C6       0.17180    0.89578    -0.08911   1.00
H2       0.12998    0.82633    0.04051   1.00
H2       0.20518    0.89077    -0.03546   1.00
C6       0.15900    0.85974    0.13265   1.00
C6       0.16370    0.87250    -0.12708   1.00
C6       0.12734    0.89962    0.07926   1.00
C6       0.13253    0.90903    -0.07107   1.00
C6       0.09280    0.84159    0.10755   1.00
C6       0.19516    0.93289    -0.10054   1.00
H2       0.16431    0.83060    0.14442   1.00
H2       0.19085    0.86217    -0.14020   1.00
H2       0.18719    0.87315    0.12670   1.00
H2       0.14529    0.84720    -0.12154   1.00
H2       0.14494    0.87701    0.15541   1.00
H2       0.14873    0.89054    -0.14863   1.00
H2       0.11227    0.91802    0.10045   1.00
H2       0.11670    0.92821    -0.09098   1.00
H2       0.15524    0.91343    0.07275   1.00
H2       0.11380    0.88406    -0.06494   1.00
H2       0.11002    0.89902    0.05255   1.00
H2       0.13737    0.92481    -0.04385   1.00
H2       0.09544    0.81220    0.11958   1.00
H2       0.22307    0.92515    -0.11383   1.00
H2       0.07916    0.85993    0.12975   1.00
H2       0.17907    0.95070    -0.12149   1.00
H2       0.07305    0.84027    0.08261   1.00
H2       0.20112    0.95099    -0.07502   1.00
C4       0.75410    0.24751    0.48025   1.00
C4       0.75424    0.24597    0.52191   1.00
C3       0.77468    0.27672    0.45897   1.00
C3       0.77817    0.27090    0.54504   1.00
C3       0.73266    0.21904    0.45854   1.00
C3       0.72974    0.21859    0.54170   1.00
C2       0.75540    0.24953    0.39595   1.00
C2       0.75314    0.24420    0.60622   1.00
C3       0.77552    0.27764    0.41811   1.00
C3       0.77754    0.27023    0.58591   1.00
C3       0.73445    0.22087    0.41696   1.00
C3       0.72980    0.21900    0.58336   1.00
H1       0.78951    0.29864    0.47237   1.00
H1       0.79724    0.29021    0.53306   1.00
C5       0.71006    0.18991    0.47835   1.00
C5       0.70622    0.19164    0.51998   1.00
H1       0.79103    0.29937    0.40451   1.00
H1       0.79539    0.28907    0.60091   1.00
H1       0.71981    0.20098    0.40052   1.00
H1       0.71257    0.20015    0.59848   1.00
C6       0.69095    0.15752    0.45515   1.00
C6       0.67739    0.16573    0.54119   1.00
H2       0.71155    0.14675    0.43345   1.00
H2       0.66211    0.18297    0.56310   1.00
H2       0.68618    0.13165    0.47286   1.00
H2       0.65354    0.15680    0.52228   1.00
C6       0.65129    0.17000    0.43606   1.00
C6       0.69666    0.12846    0.55942   1.00
H2       0.65439    0.19890    0.42292   1.00
H2       0.72396    0.13652    0.57383   1.00
C6       0.63333    0.14218    0.40459   1.00
C6       0.67180    0.10422    0.58911   1.00
H2       0.62998    0.17367    0.45949   1.00
H2       0.70518    0.10923    0.53546   1.00
C6       0.65900    0.14026    0.36735   1.00
C6       0.66370    0.12750    0.62708   1.00
C6       0.62734    0.10038    0.42074   1.00
C6       0.63253    0.09097    0.57107   1.00
C6       0.59280    0.15841    0.39245   1.00
C6       0.69516    0.06711    0.60054   1.00
H2       0.66431    0.16940    0.35558   1.00
H2       0.69085    0.13783    0.64020   1.00
H2       0.68719    0.12685    0.37330   1.00
H2       0.64529    0.15280    0.62154   1.00
H2       0.64494    0.12299    0.34459   1.00
H2       0.64873    0.10946    0.64863   1.00
H2       0.61227    0.08198    0.39955   1.00
H2       0.61670    0.07179    0.59098   1.00
H2       0.65524    0.08657    0.42725   1.00
H2       0.61380    0.11594    0.56494   1.00
H2       0.61002    0.10098    0.44745   1.00
H2       0.63737    0.07519    0.54385   1.00
H2       0.59544    0.18780    0.38042   1.00
H2       0.72307    0.07485    0.61383   1.00
H2       0.57916    0.14007    0.37025   1.00
H2       0.67907    0.04930    0.62149   1.00
H2       0.57305    0.15973    0.41739   1.00
H2       0.70112    0.04901    0.57502   1.00
C4       0.74751    0.48025    0.25410   1.00
C4       0.74597    0.52191    0.25424   1.00
C3       0.77672    0.45897    0.27468   1.00
C3       0.77090    0.54504    0.27817   1.00
C3       0.71904    0.45854    0.23266   1.00
C3       0.71859    0.54170    0.22974   1.00
C2       0.74953    0.39595    0.25540   1.00
C2       0.74420    0.60622    0.25314   1.00
C3       0.77764    0.41811    0.27552   1.00
C3       0.77023    0.58591    0.27754   1.00
C3       0.72087    0.41696    0.23445   1.00
C3       0.71900    0.58336    0.22980   1.00
H1       0.79864    0.47237    0.28951   1.00
H1       0.79021    0.53306    0.29724   1.00
C5       0.68991    0.47835    0.21006   1.00
C5       0.69164    0.51998    0.20622   1.00
H1       0.79937    0.40451    0.29103   1.00
H1       0.78907    0.60091    0.29539   1.00
H1       0.70098    0.40052    0.21981   1.00
H1       0.70015    0.59848    0.21257   1.00
C6       0.65752    0.45515    0.19095   1.00
C6       0.66573    0.54119    0.17739   1.00
H2       0.64675    0.43345    0.21155   1.00
H2       0.68297    0.56310    0.16211   1.00
H2       0.63165    0.47286    0.18618   1.00
H2       0.65680    0.52228    0.15354   1.00
C6       0.67000    0.43606    0.15129   1.00
C6       0.62846    0.55942    0.19666   1.00
H2       0.69890    0.42292    0.15439   1.00
H2       0.63652    0.57383    0.22396   1.00
C6       0.64218    0.40459    0.13333   1.00
C6       0.60422    0.58911    0.17180   1.00
H2       0.67367    0.45949    0.12998   1.00
H2       0.60923    0.53546    0.20518   1.00
C6       0.64026    0.36735    0.15900   1.00
C6       0.62750    0.62708    0.16370   1.00
C6       0.60038    0.42074    0.12734   1.00
C6       0.59097    0.57107    0.13253   1.00
C6       0.65841    0.39245    0.09280   1.00
C6       0.56711    0.60054    0.19516   1.00
H2       0.66940    0.35558    0.16431   1.00
H2       0.63783    0.64020    0.19085   1.00
H2       0.62685    0.37330    0.18719   1.00
H2       0.65280    0.62154    0.14529   1.00
H2       0.62299    0.34459    0.14494   1.00
H2       0.60946    0.64863    0.14873   1.00
H2       0.58198    0.39955    0.11227   1.00
H2       0.57179    0.59098    0.11670   1.00
H2       0.58657    0.42725    0.15524   1.00
H2       0.61594    0.56494    0.11380   1.00
H2       0.60098    0.44745    0.11002   1.00
H2       0.57519    0.54385    0.13737   1.00
H2       0.68780    0.38042    0.09544   1.00
H2       0.57485    0.61383    0.22307   1.00
H2       0.64007    0.37025    0.07916   1.00
H2       0.54930    0.62149    0.17907   1.00
H2       0.65973    0.41739    0.07305   1.00
H2       0.54901    0.57502    0.20112   1.00
C4       0.51975    0.25410    0.25249   1.00
C4       0.47809    0.25424    0.25403   1.00
C3       0.54103    0.27468    0.22328   1.00
C3       0.45496    0.27817    0.22910   1.00
C3       0.54146    0.23266    0.28096   1.00
C3       0.45830    0.22974    0.28141   1.00
C2       0.60405    0.25540    0.25047   1.00
C2       0.39378    0.25314    0.25580   1.00
C3       0.58189    0.27552    0.22236   1.00
C3       0.41409    0.27754    0.22977   1.00
C3       0.58304    0.23445    0.27913   1.00
C3       0.41664    0.22980    0.28100   1.00
H1       0.52763    0.28951    0.20136   1.00
H1       0.46694    0.29724    0.20979   1.00
C5       0.52165    0.21006    0.31009   1.00
C5       0.48002    0.20622    0.30836   1.00
H1       0.59549    0.29103    0.20063   1.00
H1       0.39909    0.29539    0.21093   1.00
H1       0.59948    0.21981    0.29902   1.00
H1       0.40152    0.21257    0.29985   1.00
C6       0.54485    0.19095    0.34248   1.00
C6       0.45881    0.17739    0.33427   1.00
H2       0.56655    0.21155    0.35325   1.00
H2       0.43690    0.16211    0.31703   1.00
H2       0.52714    0.18618    0.36835   1.00
H2       0.47772    0.15354    0.34320   1.00
C6       0.56394    0.15129    0.33000   1.00
C6       0.44058    0.19666    0.37154   1.00
H2       0.57708    0.15439    0.30110   1.00
H2       0.42617    0.22396    0.36348   1.00
C6       0.59541    0.13333    0.35782   1.00
C6       0.41089    0.17180    0.39578   1.00
H2       0.54051    0.12998    0.32633   1.00
H2       0.46454    0.20518    0.39077   1.00
C6       0.63265    0.15900    0.35974   1.00
C6       0.37292    0.16370    0.37250   1.00
C6       0.57926    0.12734    0.39962   1.00
C6       0.42893    0.13253    0.40903   1.00
C6       0.60755    0.09280    0.34159   1.00
C6       0.39946    0.19516    0.43289   1.00
H2       0.64442    0.16431    0.33060   1.00
H2       0.35980    0.19085    0.36217   1.00
H2       0.62670    0.18719    0.37315   1.00
H2       0.37846    0.14529    0.34720   1.00
H2       0.65541    0.14494    0.37701   1.00
H2       0.35137    0.14873    0.39054   1.00
H2       0.60045    0.11227    0.41802   1.00
H2       0.40902    0.11670    0.42821   1.00
H2       0.57275    0.15524    0.41343   1.00
H2       0.43506    0.11380    0.38406   1.00
H2       0.55255    0.11002    0.39902   1.00
H2       0.45615    0.13737    0.42481   1.00
H2       0.61958    0.09544    0.31220   1.00
H2       0.38617    0.22307    0.42515   1.00
H2       0.62975    0.07916    0.35993   1.00
H2       0.37851    0.17907    0.45070   1.00
H2       0.58261    0.07305    0.34027   1.00
H2       0.42498    0.20112    0.45099   1.00
C4       0.98025    0.25410    0.24751   1.00
C4       1.02191    0.25424    0.24597   1.00
C3       0.95897    0.27468    0.27672   1.00
C3       1.04504    0.27817    0.27090   1.00
C3       0.95854    0.23266    0.21904   1.00
C3       1.04170    0.22974    0.21859   1.00
C2       0.89595    0.25540    0.24953   1.00
C2       1.10622    0.25314    0.24420   1.00
C3       0.91811    0.27552    0.27764   1.00
C3       1.08591    0.27754    0.27023   1.00
C3       0.91696    0.23445    0.22087   1.00
C3       1.08336    0.22980    0.21900   1.00
H1       0.97237    0.28951    0.29864   1.00
H1       1.03306    0.29724    0.29021   1.00
C5       0.97835    0.21006    0.18991   1.00
C5       1.01998    0.20622    0.19164   1.00
H1       0.90451    0.29103    0.29937   1.00
H1       1.10091    0.29539    0.28907   1.00
H1       0.90052    0.21981    0.20098   1.00
H1       1.09848    0.21257    0.20015   1.00
C6       0.95515    0.19095    0.15752   1.00
C6       1.04119    0.17739    0.16573   1.00
H2       0.93345    0.21155    0.14675   1.00
H2       1.06310    0.16211    0.18297   1.00
H2       0.97286    0.18618    0.13165   1.00
H2       1.02228    0.15354    0.15680   1.00
C6       0.93606    0.15129    0.17000   1.00
C6       1.05942    0.19666    0.12846   1.00
H2       0.92292    0.15439    0.19890   1.00
H2       1.07383    0.22396    0.13652   1.00
C6       0.90459    0.13333    0.14218   1.00
C6       1.08911    0.17180    0.10422   1.00
H2       0.95949    0.12998    0.17367   1.00
H2       1.03546    0.20518    0.10923   1.00
C6       0.86735    0.15900    0.14026   1.00
C6       1.12708    0.16370    0.12750   1.00
C6       0.92074    0.12734    0.10038   1.00
C6       1.07107    0.13253    0.09097   1.00
C6       0.89245    0.09280    0.15841   1.00
C6       1.10054    0.19516    0.06711   1.00
H2       0.85558    0.16431    0.16940   1.00
H2       1.14020    0.19085    0.13783   1.00
H2       0.87330    0.18719    0.12685   1.00
H2       1.12154    0.14529    0.15280   1.00
H2       0.84459    0.14494    0.12299   1.00
H2       1.14863    0.14873    0.10946   1.00
H2       0.89955    0.11227    0.08198   1.00
H2       1.09098    0.11670    0.07179   1.00
H2       0.92725    0.15524    0.08657   1.00
H2       1.06494    0.11380    0.11594   1.00
H2       0.94745    0.11002    0.10098   1.00
H2       1.04385    0.13737    0.07519   1.00
H2       0.88042    0.09544    0.18780   1.00
H2       1.11383    0.22307    0.07485   1.00
H2       0.87025    0.07916    0.14007   1.00
H2       1.12149    0.17907    0.04930   1.00
H2       0.91739    0.07305    0.15973   1.00
H2       1.07502    0.20112    0.04901   1.00
C4       0.75249    0.01975    0.25410   1.00
C4       0.75403    -0.02191   0.25424   1.00
C3       0.72328    0.04103    0.27468   1.00
C3       0.72910    -0.04504   0.27817   1.00
C3       0.78096    0.04146    0.23266   1.00
C3       0.78141    -0.04170   0.22974   1.00
C2       0.75047    0.10405    0.25540   1.00
C2       0.75580    -0.10622   0.25314   1.00
C3       0.72236    0.08189    0.27552   1.00
C3       0.72977    -0.08591   0.27754   1.00
C3       0.77913    0.08304    0.23445   1.00
C3       0.78100    -0.08336   0.22980   1.00
H1       0.70136    0.02763    0.28951   1.00
H1       0.70979    -0.03306   0.29724   1.00
C5       0.81009    0.02165    0.21006   1.00
C5       0.80836    -0.01998   0.20622   1.00
H1       0.70063    0.09549    0.29103   1.00
H1       0.71093    -0.10091   0.29539   1.00
H1       0.79902    0.09948    0.21981   1.00
H1       0.79985    -0.09848   0.21257   1.00
C6       0.84248    0.04485    0.19095   1.00
C6       0.83427    -0.04119   0.17739   1.00
H2       0.85325    0.06655    0.21155   1.00
H2       0.81703    -0.06310   0.16211   1.00
H2       0.86835    0.02714    0.18618   1.00
H2       0.84320    -0.02228   0.15354   1.00
C6       0.83000    0.06394    0.15129   1.00
C6       0.87154    -0.05942   0.19666   1.00
H2       0.80110    0.07708    0.15439   1.00
H2       0.86348    -0.07383   0.22396   1.00
C6       0.85782    0.09541    0.13333   1.00
C6       0.89578    -0.08911   0.17180   1.00
H2       0.82633    0.04051    0.12998   1.00
H2       0.89077    -0.03546   0.20518   1.00
C6       0.85974    0.13265    0.15900   1.00
C6       0.87250    -0.12708   0.16370   1.00
C6       0.89962    0.07926    0.12734   1.00
C6       0.90903    -0.07107   0.13253   1.00
C6       0.84159    0.10755    0.09280   1.00
C6       0.93289    -0.10054   0.19516   1.00
H2       0.83060    0.14442    0.16431   1.00
H2       0.86217    -0.14020   0.19085   1.00
H2       0.87315    0.12670    0.18719   1.00
H2       0.84720    -0.12154   0.14529   1.00
H2       0.87701    0.15541    0.14494   1.00
H2       0.89054    -0.14863   0.14873   1.00
H2       0.91802    0.10045    0.11227   1.00
H2       0.92821    -0.09098   0.11670   1.00
H2       0.91343    0.07275    0.15524   1.00
H2       0.88406    -0.06494   0.11380   1.00
H2       0.89902    0.05255    0.11002   1.00
H2       0.92481    -0.04385   0.13737   1.00
H2       0.81220    0.11958    0.09544   1.00
H2       0.92515    -0.11383   0.22307   1.00
H2       0.85993    0.12975    0.07916   1.00
H2       0.95070    -0.12149   0.17907   1.00
H2       0.84027    0.08261    0.07305   1.00
H2       0.95099    -0.07502   0.20112   1.00
C4       0.75410    0.25249    0.01975   1.00
C4       0.75424    0.25403    -0.02191   1.00
C3       0.77468    0.22328    0.04103   1.00
C3       0.77817    0.22910    -0.04504   1.00
C3       0.73266    0.28096    0.04146   1.00
C3       0.72974    0.28141    -0.04170   1.00
C2       0.75540    0.25047    0.10405   1.00
C2       0.75314    0.25580    -0.10622   1.00
C3       0.77552    0.22236    0.08189   1.00
C3       0.77754    0.22977    -0.08591   1.00
C3       0.73445    0.27913    0.08304   1.00
C3       0.72980    0.28100    -0.08336   1.00
H1       0.78951    0.20136    0.02763   1.00
H1       0.79724    0.20979    -0.03306   1.00
C5       0.71006    0.31009    0.02165   1.00
C5       0.70622    0.30836    -0.01998   1.00
H1       0.79103    0.20063    0.09549   1.00
H1       0.79539    0.21093    -0.10091   1.00
H1       0.71981    0.29902    0.09948   1.00
H1       0.71257    0.29985    -0.09848   1.00
C6       0.69095    0.34248    0.04485   1.00
C6       0.67739    0.33427    -0.04119   1.00
H2       0.71155    0.35325    0.06655   1.00
H2       0.66211    0.31703    -0.06310   1.00
H2       0.68618    0.36835    0.02714   1.00
H2       0.65354    0.34320    -0.02228   1.00
C6       0.65129    0.33000    0.06394   1.00
C6       0.69666    0.37154    -0.05942   1.00
H2       0.65439    0.30110    0.07708   1.00
H2       0.72396    0.36348    -0.07383   1.00
C6       0.63333    0.35782    0.09541   1.00
C6       0.67180    0.39578    -0.08911   1.00
H2       0.62998    0.32633    0.04051   1.00
H2       0.70518    0.39077    -0.03546   1.00
C6       0.65900    0.35974    0.13265   1.00
C6       0.66370    0.37250    -0.12708   1.00
C6       0.62734    0.39962    0.07926   1.00
C6       0.63253    0.40903    -0.07107   1.00
C6       0.59280    0.34159    0.10755   1.00
C6       0.69516    0.43289    -0.10054   1.00
H2       0.66431    0.33060    0.14442   1.00
H2       0.69085    0.36217    -0.14020   1.00
H2       0.68719    0.37315    0.12670   1.00
H2       0.64529    0.34720    -0.12154   1.00
H2       0.64494    0.37701    0.15541   1.00
H2       0.64873    0.39054    -0.14863   1.00
H2       0.61227    0.41802    0.10045   1.00
H2       0.61670    0.42821    -0.09098   1.00
H2       0.65524    0.41343    0.07275   1.00
H2       0.61380    0.38406    -0.06494   1.00
H2       0.61002    0.39902    0.05255   1.00
H2       0.63737    0.42481    -0.04385   1.00
H2       0.59544    0.31220    0.11958   1.00
H2       0.72307    0.42515    -0.11383   1.00
H2       0.57916    0.35993    0.12975   1.00
H2       0.67907    0.45070    -0.12149   1.00
H2       0.57305    0.34027    0.08261   1.00
H2       0.70112    0.45099    -0.07502   1.00
C4       0.91910    0.91251    1.14525   1.00
C4       0.91924    0.91097    1.18691   1.00
C3       0.93968    0.94172    1.12397   1.00
C3       0.94317    0.93590    1.21004   1.00
C3       0.89766    0.88404    1.12354   1.00
C3       0.89474    0.88359    1.20670   1.00
C2       0.92040    0.91453    1.06095   1.00
C2       0.91814    0.90920    1.27122   1.00
C3       0.94052    0.94264    1.08311   1.00
C3       0.94254    0.93523    1.25091   1.00
C3       0.89945    0.88587    1.08196   1.00
C3       0.89480    0.88400    1.24836   1.00
H1       0.95451    0.96364    1.13737   1.00
H1       0.96224    0.95521    1.19806   1.00
C5       0.87506    0.85491    1.14335   1.00
C5       0.87122    0.85664    1.18498   1.00
H1       0.95603    0.96437    1.06951   1.00
H1       0.96039    0.95407    1.26591   1.00
H1       0.88481    0.86598    1.06552   1.00
H1       0.87757    0.86515    1.26348   1.00
C6       0.85595    0.82252    1.12015   1.00
C6       0.84239    0.83073    1.20619   1.00
H2       0.87655    0.81175    1.09845   1.00
H2       0.82711    0.84797    1.22810   1.00
H2       0.85118    0.79665    1.13786   1.00
H2       0.81854    0.82180    1.18728   1.00
C6       0.81629    0.83500    1.10106   1.00
C6       0.86166    0.79346    1.22442   1.00
H2       0.81939    0.86390    1.08792   1.00
H2       0.88896    0.80152    1.23883   1.00
C6       0.79833    0.80718    1.06959   1.00
C6       0.83680    0.76922    1.25411   1.00
H2       0.79498    0.83867    1.12449   1.00
H2       0.87018    0.77423    1.20046   1.00
C6       0.82400    0.80526    1.03235   1.00
C6       0.82870    0.79250    1.29208   1.00
C6       0.79234    0.76538    1.08574   1.00
C6       0.79753    0.75597    1.23607   1.00
C6       0.75780    0.82341    1.05745   1.00
C6       0.86016    0.73211    1.26554   1.00
H2       0.82931    0.83440    1.02058   1.00
H2       0.85585    0.80283    1.30520   1.00
H2       0.85219    0.79185    1.03830   1.00
H2       0.81029    0.81780    1.28654   1.00
H2       0.80994    0.78799    1.00959   1.00
H2       0.81373    0.77446    1.31363   1.00
H2       0.77727    0.74698    1.06455   1.00
H2       0.78170    0.73679    1.25598   1.00
H2       0.82024    0.75157    1.09225   1.00
H2       0.77880    0.78094    1.22994   1.00
H2       0.77502    0.76598    1.11245   1.00
H2       0.80237    0.74019    1.20885   1.00
H2       0.76044    0.85280    1.04542   1.00
H2       0.88807    0.73985    1.27883   1.00
H2       0.74416    0.80507    1.03525   1.00
H2       0.84407    0.71430    1.28649   1.00
H2       0.73805    0.82473    1.08239   1.00
H2       0.86612    0.71401    1.24002   1.00
C4       0.91251    1.14525    0.91910   1.00
C4       0.91097    1.18691    0.91924   1.00
C3       0.94172    1.12397    0.93968   1.00
C3       0.93590    1.21004    0.94317   1.00
C3       0.88404    1.12354    0.89766   1.00
C3       0.88359    1.20670    0.89474   1.00
C2       0.91453    1.06095    0.92040   1.00
C2       0.90920    1.27122    0.91814   1.00
C3       0.94264    1.08311    0.94052   1.00
C3       0.93523    1.25091    0.94254   1.00
C3       0.88587    1.08196    0.89945   1.00
C3       0.88400    1.24836    0.89480   1.00
H1       0.96364    1.13737    0.95451   1.00
H1       0.95521    1.19806    0.96224   1.00
C5       0.85491    1.14335    0.87506   1.00
C5       0.85664    1.18498    0.87122   1.00
H1       0.96437    1.06951    0.95603   1.00
H1       0.95407    1.26591    0.96039   1.00
H1       0.86598    1.06552    0.88481   1.00
H1       0.86515    1.26348    0.87757   1.00
C6       0.82252    1.12015    0.85595   1.00
C6       0.83073    1.20619    0.84239   1.00
H2       0.81175    1.09845    0.87655   1.00
H2       0.84797    1.22810    0.82711   1.00
H2       0.79665    1.13786    0.85118   1.00
H2       0.82180    1.18728    0.81854   1.00
C6       0.83500    1.10106    0.81629   1.00
C6       0.79346    1.22442    0.86166   1.00
H2       0.86390    1.08792    0.81939   1.00
H2       0.80152    1.23883    0.88896   1.00
C6       0.80718    1.06959    0.79833   1.00
C6       0.76922    1.25411    0.83680   1.00
H2       0.83867    1.12449    0.79498   1.00
H2       0.77423    1.20046    0.87018   1.00
C6       0.80526    1.03235    0.82400   1.00
C6       0.79250    1.29208    0.82870   1.00
C6       0.76538    1.08574    0.79234   1.00
C6       0.75597    1.23607    0.79753   1.00
C6       0.82341    1.05745    0.75780   1.00
C6       0.73211    1.26554    0.86016   1.00
H2       0.83440    1.02058    0.82931   1.00
H2       0.80283    1.30520    0.85585   1.00
H2       0.79185    1.03830    0.85219   1.00
H2       0.81780    1.28654    0.81029   1.00
H2       0.78799    1.00959    0.80994   1.00
H2       0.77446    1.31363    0.81373   1.00
H2       0.74698    1.06455    0.77727   1.00
H2       0.73679    1.25598    0.78170   1.00
H2       0.75157    1.09225    0.82024   1.00
H2       0.78094    1.22994    0.77880   1.00
H2       0.76598    1.11245    0.77502   1.00
H2       0.74019    1.20885    0.80237   1.00
H2       0.85280    1.04542    0.76044   1.00
H2       0.73985    1.27883    0.88807   1.00
H2       0.80507    1.03525    0.74416   1.00
H2       0.71430    1.28649    0.84407   1.00
H2       0.82473    1.08239    0.73805   1.00
H2       0.71401    1.24002    0.86612   1.00
C4       0.68475    0.91910    0.91749   1.00
C4       0.64309    0.91924    0.91903   1.00
C3       0.70603    0.93968    0.88828   1.00
C3       0.61996    0.94317    0.89410   1.00
C3       0.70646    0.89766    0.94596   1.00
C3       0.62330    0.89474    0.94641   1.00
C2       0.76905    0.92040    0.91547   1.00
C2       0.55878    0.91814    0.92080   1.00
C3       0.74689    0.94052    0.88736   1.00
C3       0.57909    0.94254    0.89477   1.00
C3       0.74804    0.89945    0.94413   1.00
C3       0.58164    0.89480    0.94600   1.00
H1       0.69263    0.95451    0.86636   1.00
H1       0.63194    0.96224    0.87479   1.00
C5       0.68665    0.87506    0.97509   1.00
C5       0.64502    0.87122    0.97336   1.00
H1       0.76049    0.95603    0.86563   1.00
H1       0.56409    0.96039    0.87593   1.00
H1       0.76448    0.88481    0.96402   1.00
H1       0.56652    0.87757    0.96485   1.00
C6       0.70985    0.85595    1.00748   1.00
C6       0.62381    0.84239    0.99927   1.00
H2       0.73155    0.87655    1.01825   1.00
H2       0.60190    0.82711    0.98203   1.00
H2       0.69214    0.85118    1.03335   1.00
H2       0.64272    0.81854    1.00820   1.00
C6       0.72894    0.81629    0.99500   1.00
C6       0.60558    0.86166    1.03654   1.00
H2       0.74208    0.81939    0.96610   1.00
H2       0.59117    0.88896    1.02848   1.00
C6       0.76041    0.79833    1.02282   1.00
C6       0.57589    0.83680    1.06078   1.00
H2       0.70551    0.79498    0.99133   1.00
H2       0.62954    0.87018    1.05577   1.00
C6       0.79765    0.82400    1.02474   1.00
C6       0.53792    0.82870    1.03750   1.00
C6       0.74426    0.79234    1.06462   1.00
C6       0.59393    0.79753    1.07403   1.00
C6       0.77255    0.75780    1.00659   1.00
C6       0.56446    0.86016    1.09789   1.00
H2       0.80942    0.82931    0.99560   1.00
H2       0.52480    0.85585    1.02717   1.00
H2       0.79170    0.85219    1.03815   1.00
H2       0.54346    0.81029    1.01220   1.00
H2       0.82041    0.80994    1.04201   1.00
H2       0.51637    0.81373    1.05554   1.00
H2       0.76545    0.77727    1.08302   1.00
H2       0.57402    0.78170    1.09321   1.00
H2       0.73775    0.82024    1.07843   1.00
H2       0.60006    0.77880    1.04906   1.00
H2       0.71755    0.77502    1.06402   1.00
H2       0.62115    0.80237    1.08981   1.00
H2       0.78458    0.76044    0.97720   1.00
H2       0.55117    0.88807    1.09015   1.00
H2       0.79475    0.74416    1.02493   1.00
H2       0.54351    0.84407    1.11570   1.00
H2       0.74761    0.73805    1.00527   1.00
H2       0.58998    0.86612    1.11599   1.00
C4       1.14525    0.91910    0.91251   1.00
C4       1.18691    0.91924    0.91097   1.00
C3       1.12397    0.93968    0.94172   1.00
C3       1.21004    0.94317    0.93590   1.00
C3       1.12354    0.89766    0.88404   1.00
C3       1.20670    0.89474    0.88359   1.00
C2       1.06095    0.92040    0.91453   1.00
C2       1.27122    0.91814    0.90920   1.00
C3       1.08311    0.94052    0.94264   1.00
C3       1.25091    0.94254    0.93523   1.00
C3       1.08196    0.89945    0.88587   1.00
C3       1.24836    0.89480    0.88400   1.00
H1       1.13737    0.95451    0.96364   1.00
H1       1.19806    0.96224    0.95521   1.00
C5       1.14335    0.87506    0.85491   1.00
C5       1.18498    0.87122    0.85664   1.00
H1       1.06951    0.95603    0.96437   1.00
H1       1.26591    0.96039    0.95407   1.00
H1       1.06552    0.88481    0.86598   1.00
H1       1.26348    0.87757    0.86515   1.00
C6       1.12015    0.85595    0.82252   1.00
C6       1.20619    0.84239    0.83073   1.00
H2       1.09845    0.87655    0.81175   1.00
H2       1.22810    0.82711    0.84797   1.00
H2       1.13786    0.85118    0.79665   1.00
H2       1.18728    0.81854    0.82180   1.00
C6       1.10106    0.81629    0.83500   1.00
C6       1.22442    0.86166    0.79346   1.00
H2       1.08792    0.81939    0.86390   1.00
H2       1.23883    0.88896    0.80152   1.00
C6       1.06959    0.79833    0.80718   1.00
C6       1.25411    0.83680    0.76922   1.00
H2       1.12449    0.79498    0.83867   1.00
H2       1.20046    0.87018    0.77423   1.00
C6       1.03235    0.82400    0.80526   1.00
C6       1.29208    0.82870    0.79250   1.00
C6       1.08574    0.79234    0.76538   1.00
C6       1.23607    0.79753    0.75597   1.00
C6       1.05745    0.75780    0.82341   1.00
C6       1.26554    0.86016    0.73211   1.00
H2       1.02058    0.82931    0.83440   1.00
H2       1.30520    0.85585    0.80283   1.00
H2       1.03830    0.85219    0.79185   1.00
H2       1.28654    0.81029    0.81780   1.00
H2       1.00959    0.80994    0.78799   1.00
H2       1.31363    0.81373    0.77446   1.00
H2       1.06455    0.77727    0.74698   1.00
H2       1.25598    0.78170    0.73679   1.00
H2       1.09225    0.82024    0.75157   1.00
H2       1.22994    0.77880    0.78094   1.00
H2       1.11245    0.77502    0.76598   1.00
H2       1.20885    0.80237    0.74019   1.00
H2       1.04542    0.76044    0.85280   1.00
H2       1.27883    0.88807    0.73985   1.00
H2       1.03525    0.74416    0.80507   1.00
H2       1.28649    0.84407    0.71430   1.00
H2       1.08239    0.73805    0.82473   1.00
H2       1.24002    0.86612    0.71401   1.00
C4       0.91749    0.68475    0.91910   1.00
C4       0.91903    0.64309    0.91924   1.00
C3       0.88828    0.70603    0.93968   1.00
C3       0.89410    0.61996    0.94317   1.00
C3       0.94596    0.70646    0.89766   1.00
C3       0.94641    0.62330    0.89474   1.00
C2       0.91547    0.76905    0.92040   1.00
C2       0.92080    0.55878    0.91814   1.00
C3       0.88736    0.74689    0.94052   1.00
C3       0.89477    0.57909    0.94254   1.00
C3       0.94413    0.74804    0.89945   1.00
C3       0.94600    0.58164    0.89480   1.00
H1       0.86636    0.69263    0.95451   1.00
H1       0.87479    0.63194    0.96224   1.00
C5       0.97509    0.68665    0.87506   1.00
C5       0.97336    0.64502    0.87122   1.00
H1       0.86563    0.76049    0.95603   1.00
H1       0.87593    0.56409    0.96039   1.00
H1       0.96402    0.76448    0.88481   1.00
H1       0.96485    0.56652    0.87757   1.00
C6       1.00748    0.70985    0.85595   1.00
C6       0.99927    0.62381    0.84239   1.00
H2       1.01825    0.73155    0.87655   1.00
H2       0.98203    0.60190    0.82711   1.00
H2       1.03335    0.69214    0.85118   1.00
H2       1.00820    0.64272    0.81854   1.00
C6       0.99500    0.72894    0.81629   1.00
C6       1.03654    0.60558    0.86166   1.00
H2       0.96610    0.74208    0.81939   1.00
H2       1.02848    0.59117    0.88896   1.00
C6       1.02282    0.76041    0.79833   1.00
C6       1.06078    0.57589    0.83680   1.00
H2       0.99133    0.70551    0.79498   1.00
H2       1.05577    0.62954    0.87018   1.00
C6       1.02474    0.79765    0.82400   1.00
C6       1.03750    0.53792    0.82870   1.00
C6       1.06462    0.74426    0.79234   1.00
C6       1.07403    0.59393    0.79753   1.00
C6       1.00659    0.77255    0.75780   1.00
C6       1.09789    0.56446    0.86016   1.00
H2       0.99560    0.80942    0.82931   1.00
H2       1.02717    0.52480    0.85585   1.00
H2       1.03815    0.79170    0.85219   1.00
H2       1.01220    0.54346    0.81029   1.00
H2       1.04201    0.82041    0.80994   1.00
H2       1.05554    0.51637    0.81373   1.00
H2       1.08302    0.76545    0.77727   1.00
H2       1.09321    0.57402    0.78170   1.00
H2       1.07843    0.73775    0.82024   1.00
H2       1.04906    0.60006    0.77880   1.00
H2       1.06402    0.71755    0.77502   1.00
H2       1.08981    0.62115    0.80237   1.00
H2       0.97720    0.78458    0.76044   1.00
H2       1.09015    0.55117    0.88807   1.00
H2       1.02493    0.79475    0.74416   1.00
H2       1.11570    0.54351    0.84407   1.00
H2       1.00527    0.74761    0.73805   1.00
H2       1.11599    0.58998    0.86612   1.00
C4       0.91910    0.91749    0.68475   1.00
C4       0.91924    0.91903    0.64309   1.00
C3       0.93968    0.88828    0.70603   1.00
C3       0.94317    0.89410    0.61996   1.00
C3       0.89766    0.94596    0.70646   1.00
C3       0.89474    0.94641    0.62330   1.00
C2       0.92040    0.91547    0.76905   1.00
C2       0.91814    0.92080    0.55878   1.00
C3       0.94052    0.88736    0.74689   1.00
C3       0.94254    0.89477    0.57909   1.00
C3       0.89945    0.94413    0.74804   1.00
C3       0.89480    0.94600    0.58164   1.00
H1       0.95451    0.86636    0.69263   1.00
H1       0.96224    0.87479    0.63194   1.00
C5       0.87506    0.97509    0.68665   1.00
C5       0.87122    0.97336    0.64502   1.00
H1       0.95603    0.86563    0.76049   1.00
H1       0.96039    0.87593    0.56409   1.00
H1       0.88481    0.96402    0.76448   1.00
H1       0.87757    0.96485    0.56652   1.00
C6       0.85595    1.00748    0.70985   1.00
C6       0.84239    0.99927    0.62381   1.00
H2       0.87655    1.01825    0.73155   1.00
H2       0.82711    0.98203    0.60190   1.00
H2       0.85118    1.03335    0.69214   1.00
H2       0.81854    1.00820    0.64272   1.00
C6       0.81629    0.99500    0.72894   1.00
C6       0.86166    1.03654    0.60558   1.00
H2       0.81939    0.96610    0.74208   1.00
H2       0.88896    1.02848    0.59117   1.00
C6       0.79833    1.02282    0.76041   1.00
C6       0.83680    1.06078    0.57589   1.00
H2       0.79498    0.99133    0.70551   1.00
H2       0.87018    1.05577    0.62954   1.00
C6       0.82400    1.02474    0.79765   1.00
C6       0.82870    1.03750    0.53792   1.00
C6       0.79234    1.06462    0.74426   1.00
C6       0.79753    1.07403    0.59393   1.00
C6       0.75780    1.00659    0.77255   1.00
C6       0.86016    1.09789    0.56446   1.00
H2       0.82931    0.99560    0.80942   1.00
H2       0.85585    1.02717    0.52480   1.00
H2       0.85219    1.03815    0.79170   1.00
H2       0.81029    1.01220    0.54346   1.00
H2       0.80994    1.04201    0.82041   1.00
H2       0.81373    1.05554    0.51637   1.00
H2       0.77727    1.08302    0.76545   1.00
H2       0.78170    1.09321    0.57402   1.00
H2       0.82024    1.07843    0.73775   1.00
H2       0.77880    1.04906    0.60006   1.00
H2       0.77502    1.06402    0.71755   1.00
H2       0.80237    1.08981    0.62115   1.00
H2       0.76044    0.97720    0.78458   1.00
H2       0.88807    1.09015    0.55117   1.00
H2       0.74416    1.02493    0.79475   1.00
H2       0.84407    1.11570    0.54351   1.00
H2       0.73805    1.00527    0.74761   1.00
H2       0.86612    1.11599    0.58998   1.00
C4       0.41910    0.41251    1.14525   1.00
C4       0.41924    0.41097    1.18691   1.00
C3       0.43968    0.44172    1.12397   1.00
C3       0.44317    0.43590    1.21004   1.00
C3       0.39766    0.38404    1.12354   1.00
C3       0.39474    0.38359    1.20670   1.00
C2       0.42040    0.41453    1.06095   1.00
C2       0.41814    0.40920    1.27122   1.00
C3       0.44052    0.44264    1.08311   1.00
C3       0.44254    0.43523    1.25091   1.00
C3       0.39945    0.38587    1.08196   1.00
C3       0.39480    0.38400    1.24836   1.00
H1       0.45451    0.46364    1.13737   1.00
H1       0.46224    0.45521    1.19806   1.00
C5       0.37506    0.35491    1.14335   1.00
C5       0.37122    0.35664    1.18498   1.00
H1       0.45603    0.46437    1.06951   1.00
H1       0.46039    0.45407    1.26591   1.00
H1       0.38481    0.36598    1.06552   1.00
H1       0.37757    0.36515    1.26348   1.00
C6       0.35595    0.32252    1.12015   1.00
C6       0.34239    0.33073    1.20619   1.00
H2       0.37655    0.31175    1.09845   1.00
H2       0.32711    0.34797    1.22810   1.00
H2       0.35118    0.29665    1.13786   1.00
H2       0.31854    0.32180    1.18728   1.00
C6       0.31629    0.33500    1.10106   1.00
C6       0.36166    0.29346    1.22442   1.00
H2       0.31939    0.36390    1.08792   1.00
H2       0.38896    0.30152    1.23883   1.00
C6       0.29833    0.30718    1.06959   1.00
C6       0.33680    0.26922    1.25411   1.00
H2       0.29498    0.33867    1.12449   1.00
H2       0.37018    0.27423    1.20046   1.00
C6       0.32400    0.30526    1.03235   1.00
C6       0.32870    0.29250    1.29208   1.00
C6       0.29234    0.26538    1.08574   1.00
C6       0.29753    0.25597    1.23607   1.00
C6       0.25780    0.32341    1.05745   1.00
C6       0.36016    0.23211    1.26554   1.00
H2       0.32931    0.33440    1.02058   1.00
H2       0.35585    0.30283    1.30520   1.00
H2       0.35219    0.29185    1.03830   1.00
H2       0.31029    0.31780    1.28654   1.00
H2       0.30994    0.28799    1.00959   1.00
H2       0.31373    0.27446    1.31363   1.00
H2       0.27727    0.24698    1.06455   1.00
H2       0.28170    0.23679    1.25598   1.00
H2       0.32024    0.25157    1.09225   1.00
H2       0.27880    0.28094    1.22994   1.00
H2       0.27502    0.26598    1.11245   1.00
H2       0.30237    0.24019    1.20885   1.00
H2       0.26044    0.35280    1.04542   1.00
H2       0.38807    0.23985    1.27883   1.00
H2       0.24416    0.30507    1.03525   1.00
H2       0.34407    0.21430    1.28649   1.00
H2       0.23805    0.32473    1.08239   1.00
H2       0.36612    0.21401    1.24002   1.00
C4       0.41251    0.64525    0.91910   1.00
C4       0.41097    0.68691    0.91924   1.00
C3       0.44172    0.62397    0.93968   1.00
C3       0.43590    0.71004    0.94317   1.00
C3       0.38404    0.62354    0.89766   1.00
C3       0.38359    0.70670    0.89474   1.00
C2       0.41453    0.56095    0.92040   1.00
C2       0.40920    0.77122    0.91814   1.00
C3       0.44264    0.58311    0.94052   1.00
C3       0.43523    0.75091    0.94254   1.00
C3       0.38587    0.58196    0.89945   1.00
C3       0.38400    0.74836    0.89480   1.00
H1       0.46364    0.63737    0.95451   1.00
H1       0.45521    0.69806    0.96224   1.00
C5       0.35491    0.64335    0.87506   1.00
C5       0.35664    0.68498    0.87122   1.00
H1       0.46437    0.56951    0.95603   1.00
H1       0.45407    0.76591    0.96039   1.00
H1       0.36598    0.56552    0.88481   1.00
H1       0.36515    0.76348    0.87757   1.00
C6       0.32252    0.62015    0.85595   1.00
C6       0.33073    0.70619    0.84239   1.00
H2       0.31175    0.59845    0.87655   1.00
H2       0.34797    0.72810    0.82711   1.00
H2       0.29665    0.63786    0.85118   1.00
H2       0.32180    0.68728    0.81854   1.00
C6       0.33500    0.60106    0.81629   1.00
C6       0.29346    0.72442    0.86166   1.00
H2       0.36390    0.58792    0.81939   1.00
H2       0.30152    0.73883    0.88896   1.00
C6       0.30718    0.56959    0.79833   1.00
C6       0.26922    0.75411    0.83680   1.00
H2       0.33867    0.62449    0.79498   1.00
H2       0.27423    0.70046    0.87018   1.00
C6       0.30526    0.53235    0.82400   1.00
C6       0.29250    0.79208    0.82870   1.00
C6       0.26538    0.58574    0.79234   1.00
C6       0.25597    0.73607    0.79753   1.00
C6       0.32341    0.55745    0.75780   1.00
C6       0.23211    0.76554    0.86016   1.00
H2       0.33440    0.52058    0.82931   1.00
H2       0.30283    0.80520    0.85585   1.00
H2       0.29185    0.53830    0.85219   1.00
H2       0.31780    0.78654    0.81029   1.00
H2       0.28799    0.50959    0.80994   1.00
H2       0.27446    0.81363    0.81373   1.00
H2       0.24698    0.56455    0.77727   1.00
H2       0.23679    0.75598    0.78170   1.00
H2       0.25157    0.59225    0.82024   1.00
H2       0.28094    0.72994    0.77880   1.00
H2       0.26598    0.61245    0.77502   1.00
H2       0.24019    0.70885    0.80237   1.00
H2       0.35280    0.54542    0.76044   1.00
H2       0.23985    0.77883    0.88807   1.00
H2       0.30507    0.53525    0.74416   1.00
H2       0.21430    0.78649    0.84407   1.00
H2       0.32473    0.58239    0.73805   1.00
H2       0.21401    0.74002    0.86612   1.00
C4       0.18475    0.41910    0.91749   1.00
C4       0.14309    0.41924    0.91903   1.00
C3       0.20603    0.43968    0.88828   1.00
C3       0.11996    0.44317    0.89410   1.00
C3       0.20646    0.39766    0.94596   1.00
C3       0.12330    0.39474    0.94641   1.00
C2       0.26905    0.42040    0.91547   1.00
C2       0.05878    0.41814    0.92080   1.00
C3       0.24689    0.44052    0.88736   1.00
C3       0.07909    0.44254    0.89477   1.00
C3       0.24804    0.39945    0.94413   1.00
C3       0.08164    0.39480    0.94600   1.00
H1       0.19263    0.45451    0.86636   1.00
H1       0.13194    0.46224    0.87479   1.00
C5       0.18665    0.37506    0.97509   1.00
C5       0.14502    0.37122    0.97336   1.00
H1       0.26049    0.45603    0.86563   1.00
H1       0.06409    0.46039    0.87593   1.00
H1       0.26448    0.38481    0.96402   1.00
H1       0.06652    0.37757    0.96485   1.00
C6       0.20985    0.35595    1.00748   1.00
C6       0.12381    0.34239    0.99927   1.00
H2       0.23155    0.37655    1.01825   1.00
H2       0.10190    0.32711    0.98203   1.00
H2       0.19214    0.35118    1.03335   1.00
H2       0.14272    0.31854    1.00820   1.00
C6       0.22894    0.31629    0.99500   1.00
C6       0.10558    0.36166    1.03654   1.00
H2       0.24208    0.31939    0.96610   1.00
H2       0.09117    0.38896    1.02848   1.00
C6       0.26041    0.29833    1.02282   1.00
C6       0.07589    0.33680    1.06078   1.00
H2       0.20551    0.29498    0.99133   1.00
H2       0.12954    0.37018    1.05577   1.00
C6       0.29765    0.32400    1.02474   1.00
C6       0.03792    0.32870    1.03750   1.00
C6       0.24426    0.29234    1.06462   1.00
C6       0.09393    0.29753    1.07403   1.00
C6       0.27255    0.25780    1.00659   1.00
C6       0.06446    0.36016    1.09789   1.00
H2       0.30942    0.32931    0.99560   1.00
H2       0.02480    0.35585    1.02717   1.00
H2       0.29170    0.35219    1.03815   1.00
H2       0.04346    0.31029    1.01220   1.00
H2       0.32041    0.30994    1.04201   1.00
H2       0.01637    0.31373    1.05554   1.00
H2       0.26545    0.27727    1.08302   1.00
H2       0.07402    0.28170    1.09321   1.00
H2       0.23775    0.32024    1.07843   1.00
H2       0.10006    0.27880    1.04906   1.00
H2       0.21755    0.27502    1.06402   1.00
H2       0.12115    0.30237    1.08981   1.00
H2       0.28458    0.26044    0.97720   1.00
H2       0.05117    0.38807    1.09015   1.00
H2       0.29475    0.24416    1.02493   1.00
H2       0.04351    0.34407    1.11570   1.00
H2       0.24761    0.23805    1.00527   1.00
H2       0.08998    0.36612    1.11599   1.00
C4       0.64525    0.41910    0.91251   1.00
C4       0.68691    0.41924    0.91097   1.00
C3       0.62397    0.43968    0.94172   1.00
C3       0.71004    0.44317    0.93590   1.00
C3       0.62354    0.39766    0.88404   1.00
C3       0.70670    0.39474    0.88359   1.00
C2       0.56095    0.42040    0.91453   1.00
C2       0.77122    0.41814    0.90920   1.00
C3       0.58311    0.44052    0.94264   1.00
C3       0.75091    0.44254    0.93523   1.00
C3       0.58196    0.39945    0.88587   1.00
C3       0.74836    0.39480    0.88400   1.00
H1       0.63737    0.45451    0.96364   1.00
H1       0.69806    0.46224    0.95521   1.00
C5       0.64335    0.37506    0.85491   1.00
C5       0.68498    0.37122    0.85664   1.00
H1       0.56951    0.45603    0.96437   1.00
H1       0.76591    0.46039    0.95407   1.00
H1       0.56552    0.38481    0.86598   1.00
H1       0.76348    0.37757    0.86515   1.00
C6       0.62015    0.35595    0.82252   1.00
C6       0.70619    0.34239    0.83073   1.00
H2       0.59845    0.37655    0.81175   1.00
H2       0.72810    0.32711    0.84797   1.00
H2       0.63786    0.35118    0.79665   1.00
H2       0.68728    0.31854    0.82180   1.00
C6       0.60106    0.31629    0.83500   1.00
C6       0.72442    0.36166    0.79346   1.00
H2       0.58792    0.31939    0.86390   1.00
H2       0.73883    0.38896    0.80152   1.00
C6       0.56959    0.29833    0.80718   1.00
C6       0.75411    0.33680    0.76922   1.00
H2       0.62449    0.29498    0.83867   1.00
H2       0.70046    0.37018    0.77423   1.00
C6       0.53235    0.32400    0.80526   1.00
C6       0.79208    0.32870    0.79250   1.00
C6       0.58574    0.29234    0.76538   1.00
C6       0.73607    0.29753    0.75597   1.00
C6       0.55745    0.25780    0.82341   1.00
C6       0.76554    0.36016    0.73211   1.00
H2       0.52058    0.32931    0.83440   1.00
H2       0.80520    0.35585    0.80283   1.00
H2       0.53830    0.35219    0.79185   1.00
H2       0.78654    0.31029    0.81780   1.00
H2       0.50959    0.30994    0.78799   1.00
H2       0.81363    0.31373    0.77446   1.00
H2       0.56455    0.27727    0.74698   1.00
H2       0.75598    0.28170    0.73679   1.00
H2       0.59225    0.32024    0.75157   1.00
H2       0.72994    0.27880    0.78094   1.00
H2       0.61245    0.27502    0.76598   1.00
H2       0.70885    0.30237    0.74019   1.00
H2       0.54542    0.26044    0.85280   1.00
H2       0.77883    0.38807    0.73985   1.00
H2       0.53525    0.24416    0.80507   1.00
H2       0.78649    0.34407    0.71430   1.00
H2       0.58239    0.23805    0.82473   1.00
H2       0.74002    0.36612    0.71401   1.00
C4       0.41749    0.18475    0.91910   1.00
C4       0.41903    0.14309    0.91924   1.00
C3       0.38828    0.20603    0.93968   1.00
C3       0.39410    0.11996    0.94317   1.00
C3       0.44596    0.20646    0.89766   1.00
C3       0.44641    0.12330    0.89474   1.00
C2       0.41547    0.26905    0.92040   1.00
C2       0.42080    0.05878    0.91814   1.00
C3       0.38736    0.24689    0.94052   1.00
C3       0.39477    0.07909    0.94254   1.00
C3       0.44413    0.24804    0.89945   1.00
C3       0.44600    0.08164    0.89480   1.00
H1       0.36636    0.19263    0.95451   1.00
H1       0.37479    0.13194    0.96224   1.00
C5       0.47509    0.18665    0.87506   1.00
C5       0.47336    0.14502    0.87122   1.00
H1       0.36563    0.26049    0.95603   1.00
H1       0.37593    0.06409    0.96039   1.00
H1       0.46402    0.26448    0.88481   1.00
H1       0.46485    0.06652    0.87757   1.00
C6       0.50748    0.20985    0.85595   1.00
C6       0.49927    0.12381    0.84239   1.00
H2       0.51825    0.23155    0.87655   1.00
H2       0.48203    0.10190    0.82711   1.00
H2       0.53335    0.19214    0.85118   1.00
H2       0.50820    0.14272    0.81854   1.00
C6       0.49500    0.22894    0.81629   1.00
C6       0.53654    0.10558    0.86166   1.00
H2       0.46610    0.24208    0.81939   1.00
H2       0.52848    0.09117    0.88896   1.00
C6       0.52282    0.26041    0.79833   1.00
C6       0.56078    0.07589    0.83680   1.00
H2       0.49133    0.20551    0.79498   1.00
H2       0.55577    0.12954    0.87018   1.00
C6       0.52474    0.29765    0.82400   1.00
C6       0.53750    0.03792    0.82870   1.00
C6       0.56462    0.24426    0.79234   1.00
C6       0.57403    0.09393    0.79753   1.00
C6       0.50659    0.27255    0.75780   1.00
C6       0.59789    0.06446    0.86016   1.00
H2       0.49560    0.30942    0.82931   1.00
H2       0.52717    0.02480    0.85585   1.00
H2       0.53815    0.29170    0.85219   1.00
H2       0.51220    0.04346    0.81029   1.00
H2       0.54201    0.32041    0.80994   1.00
H2       0.55554    0.01637    0.81373   1.00
H2       0.58302    0.26545    0.77727   1.00
H2       0.59321    0.07402    0.78170   1.00
H2       0.57843    0.23775    0.82024   1.00
H2       0.54906    0.10006    0.77880   1.00
H2       0.56402    0.21755    0.77502   1.00
H2       0.58981    0.12115    0.80237   1.00
H2       0.47720    0.28458    0.76044   1.00
H2       0.59015    0.05117    0.88807   1.00
H2       0.52493    0.29475    0.74416   1.00
H2       0.61570    0.04351    0.84407   1.00
H2       0.50527    0.24761    0.73805   1.00
H2       0.61599    0.08998    0.86612   1.00
C4       0.41910    0.41749    0.68475   1.00
C4       0.41924    0.41903    0.64309   1.00
C3       0.43968    0.38828    0.70603   1.00
C3       0.44317    0.39410    0.61996   1.00
C3       0.39766    0.44596    0.70646   1.00
C3       0.39474    0.44641    0.62330   1.00
C2       0.42040    0.41547    0.76905   1.00
C2       0.41814    0.42080    0.55878   1.00
C3       0.44052    0.38736    0.74689   1.00
C3       0.44254    0.39477    0.57909   1.00
C3       0.39945    0.44413    0.74804   1.00
C3       0.39480    0.44600    0.58164   1.00
H1       0.45451    0.36636    0.69263   1.00
H1       0.46224    0.37479    0.63194   1.00
C5       0.37506    0.47509    0.68665   1.00
C5       0.37122    0.47336    0.64502   1.00
H1       0.45603    0.36563    0.76049   1.00
H1       0.46039    0.37593    0.56409   1.00
H1       0.38481    0.46402    0.76448   1.00
H1       0.37757    0.46485    0.56652   1.00
C6       0.35595    0.50748    0.70985   1.00
C6       0.34239    0.49927    0.62381   1.00
H2       0.37655    0.51825    0.73155   1.00
H2       0.32711    0.48203    0.60190   1.00
H2       0.35118    0.53335    0.69214   1.00
H2       0.31854    0.50820    0.64272   1.00
C6       0.31629    0.49500    0.72894   1.00
C6       0.36166    0.53654    0.60558   1.00
H2       0.31939    0.46610    0.74208   1.00
H2       0.38896    0.52848    0.59117   1.00
C6       0.29833    0.52282    0.76041   1.00
C6       0.33680    0.56078    0.57589   1.00
H2       0.29498    0.49133    0.70551   1.00
H2       0.37018    0.55577    0.62954   1.00
C6       0.32400    0.52474    0.79765   1.00
C6       0.32870    0.53750    0.53792   1.00
C6       0.29234    0.56462    0.74426   1.00
C6       0.29753    0.57403    0.59393   1.00
C6       0.25780    0.50659    0.77255   1.00
C6       0.36016    0.59789    0.56446   1.00
H2       0.32931    0.49560    0.80942   1.00
H2       0.35585    0.52717    0.52480   1.00
H2       0.35219    0.53815    0.79170   1.00
H2       0.31029    0.51220    0.54346   1.00
H2       0.30994    0.54201    0.82041   1.00
H2       0.31373    0.55554    0.51637   1.00
H2       0.27727    0.58302    0.76545   1.00
H2       0.28170    0.59321    0.57402   1.00
H2       0.32024    0.57843    0.73775   1.00
H2       0.27880    0.54906    0.60006   1.00
H2       0.27502    0.56402    0.71755   1.00
H2       0.30237    0.58981    0.62115   1.00
H2       0.26044    0.47720    0.78458   1.00
H2       0.38807    0.59015    0.55117   1.00
H2       0.24416    0.52493    0.79475   1.00
H2       0.34407    0.61570    0.54351   1.00
H2       0.23805    0.50527    0.74761   1.00
H2       0.36612    0.61599    0.58998   1.00
C4       0.41910    0.91251    0.64525   1.00
C4       0.41924    0.91097    0.68691   1.00
C3       0.43968    0.94172    0.62397   1.00
C3       0.44317    0.93590    0.71004   1.00
C3       0.39766    0.88404    0.62354   1.00
C3       0.39474    0.88359    0.70670   1.00
C2       0.42040    0.91453    0.56095   1.00
C2       0.41814    0.90920    0.77122   1.00
C3       0.44052    0.94264    0.58311   1.00
C3       0.44254    0.93523    0.75091   1.00
C3       0.39945    0.88587    0.58196   1.00
C3       0.39480    0.88400    0.74836   1.00
H1       0.45451    0.96364    0.63737   1.00
H1       0.46224    0.95521    0.69806   1.00
C5       0.37506    0.85491    0.64335   1.00
C5       0.37122    0.85664    0.68498   1.00
H1       0.45603    0.96437    0.56951   1.00
H1       0.46039    0.95407    0.76591   1.00
H1       0.38481    0.86598    0.56552   1.00
H1       0.37757    0.86515    0.76348   1.00
C6       0.35595    0.82252    0.62015   1.00
C6       0.34239    0.83073    0.70619   1.00
H2       0.37655    0.81175    0.59845   1.00
H2       0.32711    0.84797    0.72810   1.00
H2       0.35118    0.79665    0.63786   1.00
H2       0.31854    0.82180    0.68728   1.00
C6       0.31629    0.83500    0.60106   1.00
C6       0.36166    0.79346    0.72442   1.00
H2       0.31939    0.86390    0.58792   1.00
H2       0.38896    0.80152    0.73883   1.00
C6       0.29833    0.80718    0.56959   1.00
C6       0.33680    0.76922    0.75411   1.00
H2       0.29498    0.83867    0.62449   1.00
H2       0.37018    0.77423    0.70046   1.00
C6       0.32400    0.80526    0.53235   1.00
C6       0.32870    0.79250    0.79208   1.00
C6       0.29234    0.76538    0.58574   1.00
C6       0.29753    0.75597    0.73607   1.00
C6       0.25780    0.82341    0.55745   1.00
C6       0.36016    0.73211    0.76554   1.00
H2       0.32931    0.83440    0.52058   1.00
H2       0.35585    0.80283    0.80520   1.00
H2       0.35219    0.79185    0.53830   1.00
H2       0.31029    0.81780    0.78654   1.00
H2       0.30994    0.78799    0.50959   1.00
H2       0.31373    0.77446    0.81363   1.00
H2       0.27727    0.74698    0.56455   1.00
H2       0.28170    0.73679    0.75598   1.00
H2       0.32024    0.75157    0.59225   1.00
H2       0.27880    0.78094    0.72994   1.00
H2       0.27502    0.76598    0.61245   1.00
H2       0.30237    0.74019    0.70885   1.00
H2       0.26044    0.85280    0.54542   1.00
H2       0.38807    0.73985    0.77883   1.00
H2       0.24416    0.80507    0.53525   1.00
H2       0.34407    0.71430    0.78649   1.00
H2       0.23805    0.82473    0.58239   1.00
H2       0.36612    0.71401    0.74002   1.00
C4       0.41251    1.14525    0.41910   1.00
C4       0.41097    1.18691    0.41924   1.00
C3       0.44172    1.12397    0.43968   1.00
C3       0.43590    1.21004    0.44317   1.00
C3       0.38404    1.12354    0.39766   1.00
C3       0.38359    1.20670    0.39474   1.00
C2       0.41453    1.06095    0.42040   1.00
C2       0.40920    1.27122    0.41814   1.00
C3       0.44264    1.08311    0.44052   1.00
C3       0.43523    1.25091    0.44254   1.00
C3       0.38587    1.08196    0.39945   1.00
C3       0.38400    1.24836    0.39480   1.00
H1       0.46364    1.13737    0.45451   1.00
H1       0.45521    1.19806    0.46224   1.00
C5       0.35491    1.14335    0.37506   1.00
C5       0.35664    1.18498    0.37122   1.00
H1       0.46437    1.06951    0.45603   1.00
H1       0.45407    1.26591    0.46039   1.00
H1       0.36598    1.06552    0.38481   1.00
H1       0.36515    1.26348    0.37757   1.00
C6       0.32252    1.12015    0.35595   1.00
C6       0.33073    1.20619    0.34239   1.00
H2       0.31175    1.09845    0.37655   1.00
H2       0.34797    1.22810    0.32711   1.00
H2       0.29665    1.13786    0.35118   1.00
H2       0.32180    1.18728    0.31854   1.00
C6       0.33500    1.10106    0.31629   1.00
C6       0.29346    1.22442    0.36166   1.00
H2       0.36390    1.08792    0.31939   1.00
H2       0.30152    1.23883    0.38896   1.00
C6       0.30718    1.06959    0.29833   1.00
C6       0.26922    1.25411    0.33680   1.00
H2       0.33867    1.12449    0.29498   1.00
H2       0.27423    1.20046    0.37018   1.00
C6       0.30526    1.03235    0.32400   1.00
C6       0.29250    1.29208    0.32870   1.00
C6       0.26538    1.08574    0.29234   1.00
C6       0.25597    1.23607    0.29753   1.00
C6       0.32341    1.05745    0.25780   1.00
C6       0.23211    1.26554    0.36016   1.00
H2       0.33440    1.02058    0.32931   1.00
H2       0.30283    1.30520    0.35585   1.00
H2       0.29185    1.03830    0.35219   1.00
H2       0.31780    1.28654    0.31029   1.00
H2       0.28799    1.00959    0.30994   1.00
H2       0.27446    1.31363    0.31373   1.00
H2       0.24698    1.06455    0.27727   1.00
H2       0.23679    1.25598    0.28170   1.00
H2       0.25157    1.09225    0.32024   1.00
H2       0.28094    1.22994    0.27880   1.00
H2       0.26598    1.11245    0.27502   1.00
H2       0.24019    1.20885    0.30237   1.00
H2       0.35280    1.04542    0.26044   1.00
H2       0.23985    1.27883    0.38807   1.00
H2       0.30507    1.03525    0.24416   1.00
H2       0.21430    1.28649    0.34407   1.00
H2       0.32473    1.08239    0.23805   1.00
H2       0.21401    1.24002    0.36612   1.00
C4       0.18475    0.91910    0.41749   1.00
C4       0.14309    0.91924    0.41903   1.00
C3       0.20603    0.93968    0.38828   1.00
C3       0.11996    0.94317    0.39410   1.00
C3       0.20646    0.89766    0.44596   1.00
C3       0.12330    0.89474    0.44641   1.00
C2       0.26905    0.92040    0.41547   1.00
C2       0.05878    0.91814    0.42080   1.00
C3       0.24689    0.94052    0.38736   1.00
C3       0.07909    0.94254    0.39477   1.00
C3       0.24804    0.89945    0.44413   1.00
C3       0.08164    0.89480    0.44600   1.00
H1       0.19263    0.95451    0.36636   1.00
H1       0.13194    0.96224    0.37479   1.00
C5       0.18665    0.87506    0.47509   1.00
C5       0.14502    0.87122    0.47336   1.00
H1       0.26049    0.95603    0.36563   1.00
H1       0.06409    0.96039    0.37593   1.00
H1       0.26448    0.88481    0.46402   1.00
H1       0.06652    0.87757    0.46485   1.00
C6       0.20985    0.85595    0.50748   1.00
C6       0.12381    0.84239    0.49927   1.00
H2       0.23155    0.87655    0.51825   1.00
H2       0.10190    0.82711    0.48203   1.00
H2       0.19214    0.85118    0.53335   1.00
H2       0.14272    0.81854    0.50820   1.00
C6       0.22894    0.81629    0.49500   1.00
C6       0.10558    0.86166    0.53654   1.00
H2       0.24208    0.81939    0.46610   1.00
H2       0.09117    0.88896    0.52848   1.00
C6       0.26041    0.79833    0.52282   1.00
C6       0.07589    0.83680    0.56078   1.00
H2       0.20551    0.79498    0.49133   1.00
H2       0.12954    0.87018    0.55577   1.00
C6       0.29765    0.82400    0.52474   1.00
C6       0.03792    0.82870    0.53750   1.00
C6       0.24426    0.79234    0.56462   1.00
C6       0.09393    0.79753    0.57403   1.00
C6       0.27255    0.75780    0.50659   1.00
C6       0.06446    0.86016    0.59789   1.00
H2       0.30942    0.82931    0.49560   1.00
H2       0.02480    0.85585    0.52717   1.00
H2       0.29170    0.85219    0.53815   1.00
H2       0.04346    0.81029    0.51220   1.00
H2       0.32041    0.80994    0.54201   1.00
H2       0.01637    0.81373    0.55554   1.00
H2       0.26545    0.77727    0.58302   1.00
H2       0.07402    0.78170    0.59321   1.00
H2       0.23775    0.82024    0.57843   1.00
H2       0.10006    0.77880    0.54906   1.00
H2       0.21755    0.77502    0.56402   1.00
H2       0.12115    0.80237    0.58981   1.00
H2       0.28458    0.76044    0.47720   1.00
H2       0.05117    0.88807    0.59015   1.00
H2       0.29475    0.74416    0.52493   1.00
H2       0.04351    0.84407    0.61570   1.00
H2       0.24761    0.73805    0.50527   1.00
H2       0.08998    0.86612    0.61599   1.00
C4       0.64525    0.91910    0.41251   1.00
C4       0.68691    0.91924    0.41097   1.00
C3       0.62397    0.93968    0.44172   1.00
C3       0.71004    0.94317    0.43590   1.00
C3       0.62354    0.89766    0.38404   1.00
C3       0.70670    0.89474    0.38359   1.00
C2       0.56095    0.92040    0.41453   1.00
C2       0.77122    0.91814    0.40920   1.00
C3       0.58311    0.94052    0.44264   1.00
C3       0.75091    0.94254    0.43523   1.00
C3       0.58196    0.89945    0.38587   1.00
C3       0.74836    0.89480    0.38400   1.00
H1       0.63737    0.95451    0.46364   1.00
H1       0.69806    0.96224    0.45521   1.00
C5       0.64335    0.87506    0.35491   1.00
C5       0.68498    0.87122    0.35664   1.00
H1       0.56951    0.95603    0.46437   1.00
H1       0.76591    0.96039    0.45407   1.00
H1       0.56552    0.88481    0.36598   1.00
H1       0.76348    0.87757    0.36515   1.00
C6       0.62015    0.85595    0.32252   1.00
C6       0.70619    0.84239    0.33073   1.00
H2       0.59845    0.87655    0.31175   1.00
H2       0.72810    0.82711    0.34797   1.00
H2       0.63786    0.85118    0.29665   1.00
H2       0.68728    0.81854    0.32180   1.00
C6       0.60106    0.81629    0.33500   1.00
C6       0.72442    0.86166    0.29346   1.00
H2       0.58792    0.81939    0.36390   1.00
H2       0.73883    0.88896    0.30152   1.00
C6       0.56959    0.79833    0.30718   1.00
C6       0.75411    0.83680    0.26922   1.00
H2       0.62449    0.79498    0.33867   1.00
H2       0.70046    0.87018    0.27423   1.00
C6       0.53235    0.82400    0.30526   1.00
C6       0.79208    0.82870    0.29250   1.00
C6       0.58574    0.79234    0.26538   1.00
C6       0.73607    0.79753    0.25597   1.00
C6       0.55745    0.75780    0.32341   1.00
C6       0.76554    0.86016    0.23211   1.00
H2       0.52058    0.82931    0.33440   1.00
H2       0.80520    0.85585    0.30283   1.00
H2       0.53830    0.85219    0.29185   1.00
H2       0.78654    0.81029    0.31780   1.00
H2       0.50959    0.80994    0.28799   1.00
H2       0.81363    0.81373    0.27446   1.00
H2       0.56455    0.77727    0.24698   1.00
H2       0.75598    0.78170    0.23679   1.00
H2       0.59225    0.82024    0.25157   1.00
H2       0.72994    0.77880    0.28094   1.00
H2       0.61245    0.77502    0.26598   1.00
H2       0.70885    0.80237    0.24019   1.00
H2       0.54542    0.76044    0.35280   1.00
H2       0.77883    0.88807    0.23985   1.00
H2       0.53525    0.74416    0.30507   1.00
H2       0.78649    0.84407    0.21430   1.00
H2       0.58239    0.73805    0.32473   1.00
H2       0.74002    0.86612    0.21401   1.00
C4       0.41749    0.68475    0.41910   1.00
C4       0.41903    0.64309    0.41924   1.00
C3       0.38828    0.70603    0.43968   1.00
C3       0.39410    0.61996    0.44317   1.00
C3       0.44596    0.70646    0.39766   1.00
C3       0.44641    0.62330    0.39474   1.00
C2       0.41547    0.76905    0.42040   1.00
C2       0.42080    0.55878    0.41814   1.00
C3       0.38736    0.74689    0.44052   1.00
C3       0.39477    0.57909    0.44254   1.00
C3       0.44413    0.74804    0.39945   1.00
C3       0.44600    0.58164    0.39480   1.00
H1       0.36636    0.69263    0.45451   1.00
H1       0.37479    0.63194    0.46224   1.00
C5       0.47509    0.68665    0.37506   1.00
C5       0.47336    0.64502    0.37122   1.00
H1       0.36563    0.76049    0.45603   1.00
H1       0.37593    0.56409    0.46039   1.00
H1       0.46402    0.76448    0.38481   1.00
H1       0.46485    0.56652    0.37757   1.00
C6       0.50748    0.70985    0.35595   1.00
C6       0.49927    0.62381    0.34239   1.00
H2       0.51825    0.73155    0.37655   1.00
H2       0.48203    0.60190    0.32711   1.00
H2       0.53335    0.69214    0.35118   1.00
H2       0.50820    0.64272    0.31854   1.00
C6       0.49500    0.72894    0.31629   1.00
C6       0.53654    0.60558    0.36166   1.00
H2       0.46610    0.74208    0.31939   1.00
H2       0.52848    0.59117    0.38896   1.00
C6       0.52282    0.76041    0.29833   1.00
C6       0.56078    0.57589    0.33680   1.00
H2       0.49133    0.70551    0.29498   1.00
H2       0.55577    0.62954    0.37018   1.00
C6       0.52474    0.79765    0.32400   1.00
C6       0.53750    0.53792    0.32870   1.00
C6       0.56462    0.74426    0.29234   1.00
C6       0.57403    0.59393    0.29753   1.00
C6       0.50659    0.77255    0.25780   1.00
C6       0.59789    0.56446    0.36016   1.00
H2       0.49560    0.80942    0.32931   1.00
H2       0.52717    0.52480    0.35585   1.00
H2       0.53815    0.79170    0.35219   1.00
H2       0.51220    0.54346    0.31029   1.00
H2       0.54201    0.82041    0.30994   1.00
H2       0.55554    0.51637    0.31373   1.00
H2       0.58302    0.76545    0.27727   1.00
H2       0.59321    0.57402    0.28170   1.00
H2       0.57843    0.73775    0.32024   1.00
H2       0.54906    0.60006    0.27880   1.00
H2       0.56402    0.71755    0.27502   1.00
H2       0.58981    0.62115    0.30237   1.00
H2       0.47720    0.78458    0.26044   1.00
H2       0.59015    0.55117    0.38807   1.00
H2       0.52493    0.79475    0.24416   1.00
H2       0.61570    0.54351    0.34407   1.00
H2       0.50527    0.74761    0.23805   1.00
H2       0.61599    0.58998    0.36612   1.00
C4       0.41910    0.91749    0.18475   1.00
C4       0.41924    0.91903    0.14309   1.00
C3       0.43968    0.88828    0.20603   1.00
C3       0.44317    0.89410    0.11996   1.00
C3       0.39766    0.94596    0.20646   1.00
C3       0.39474    0.94641    0.12330   1.00
C2       0.42040    0.91547    0.26905   1.00
C2       0.41814    0.92080    0.05878   1.00
C3       0.44052    0.88736    0.24689   1.00
C3       0.44254    0.89477    0.07909   1.00
C3       0.39945    0.94413    0.24804   1.00
C3       0.39480    0.94600    0.08164   1.00
H1       0.45451    0.86636    0.19263   1.00
H1       0.46224    0.87479    0.13194   1.00
C5       0.37506    0.97509    0.18665   1.00
C5       0.37122    0.97336    0.14502   1.00
H1       0.45603    0.86563    0.26049   1.00
H1       0.46039    0.87593    0.06409   1.00
H1       0.38481    0.96402    0.26448   1.00
H1       0.37757    0.96485    0.06652   1.00
C6       0.35595    1.00748    0.20985   1.00
C6       0.34239    0.99927    0.12381   1.00
H2       0.37655    1.01825    0.23155   1.00
H2       0.32711    0.98203    0.10190   1.00
H2       0.35118    1.03335    0.19214   1.00
H2       0.31854    1.00820    0.14272   1.00
C6       0.31629    0.99500    0.22894   1.00
C6       0.36166    1.03654    0.10558   1.00
H2       0.31939    0.96610    0.24208   1.00
H2       0.38896    1.02848    0.09117   1.00
C6       0.29833    1.02282    0.26041   1.00
C6       0.33680    1.06078    0.07589   1.00
H2       0.29498    0.99133    0.20551   1.00
H2       0.37018    1.05577    0.12954   1.00
C6       0.32400    1.02474    0.29765   1.00
C6       0.32870    1.03750    0.03792   1.00
C6       0.29234    1.06462    0.24426   1.00
C6       0.29753    1.07403    0.09393   1.00
C6       0.25780    1.00659    0.27255   1.00
C6       0.36016    1.09789    0.06446   1.00
H2       0.32931    0.99560    0.30942   1.00
H2       0.35585    1.02717    0.02480   1.00
H2       0.35219    1.03815    0.29170   1.00
H2       0.31029    1.01220    0.04346   1.00
H2       0.30994    1.04201    0.32041   1.00
H2       0.31373    1.05554    0.01637   1.00
H2       0.27727    1.08302    0.26545   1.00
H2       0.28170    1.09321    0.07402   1.00
H2       0.32024    1.07843    0.23775   1.00
H2       0.27880    1.04906    0.10006   1.00
H2       0.27502    1.06402    0.21755   1.00
H2       0.30237    1.08981    0.12115   1.00
H2       0.26044    0.97720    0.28458   1.00
H2       0.38807    1.09015    0.05117   1.00
H2       0.24416    1.02493    0.29475   1.00
H2       0.34407    1.11570    0.04351   1.00
H2       0.23805    1.00527    0.24761   1.00
H2       0.36612    1.11599    0.08998   1.00
C4       0.91910    0.41251    0.64525   1.00
C4       0.91924    0.41097    0.68691   1.00
C3       0.93968    0.44172    0.62397   1.00
C3       0.94317    0.43590    0.71004   1.00
C3       0.89766    0.38404    0.62354   1.00
C3       0.89474    0.38359    0.70670   1.00
C2       0.92040    0.41453    0.56095   1.00
C2       0.91814    0.40920    0.77122   1.00
C3       0.94052    0.44264    0.58311   1.00
C3       0.94254    0.43523    0.75091   1.00
C3       0.89945    0.38587    0.58196   1.00
C3       0.89480    0.38400    0.74836   1.00
H1       0.95451    0.46364    0.63737   1.00
H1       0.96224    0.45521    0.69806   1.00
C5       0.87506    0.35491    0.64335   1.00
C5       0.87122    0.35664    0.68498   1.00
H1       0.95603    0.46437    0.56951   1.00
H1       0.96039    0.45407    0.76591   1.00
H1       0.88481    0.36598    0.56552   1.00
H1       0.87757    0.36515    0.76348   1.00
C6       0.85595    0.32252    0.62015   1.00
C6       0.84239    0.33073    0.70619   1.00
H2       0.87655    0.31175    0.59845   1.00
H2       0.82711    0.34797    0.72810   1.00
H2       0.85118    0.29665    0.63786   1.00
H2       0.81854    0.32180    0.68728   1.00
C6       0.81629    0.33500    0.60106   1.00
C6       0.86166    0.29346    0.72442   1.00
H2       0.81939    0.36390    0.58792   1.00
H2       0.88896    0.30152    0.73883   1.00
C6       0.79833    0.30718    0.56959   1.00
C6       0.83680    0.26922    0.75411   1.00
H2       0.79498    0.33867    0.62449   1.00
H2       0.87018    0.27423    0.70046   1.00
C6       0.82400    0.30526    0.53235   1.00
C6       0.82870    0.29250    0.79208   1.00
C6       0.79234    0.26538    0.58574   1.00
C6       0.79753    0.25597    0.73607   1.00
C6       0.75780    0.32341    0.55745   1.00
C6       0.86016    0.23211    0.76554   1.00
H2       0.82931    0.33440    0.52058   1.00
H2       0.85585    0.30283    0.80520   1.00
H2       0.85219    0.29185    0.53830   1.00
H2       0.81029    0.31780    0.78654   1.00
H2       0.80994    0.28799    0.50959   1.00
H2       0.81373    0.27446    0.81363   1.00
H2       0.77727    0.24698    0.56455   1.00
H2       0.78170    0.23679    0.75598   1.00
H2       0.82024    0.25157    0.59225   1.00
H2       0.77880    0.28094    0.72994   1.00
H2       0.77502    0.26598    0.61245   1.00
H2       0.80237    0.24019    0.70885   1.00
H2       0.76044    0.35280    0.54542   1.00
H2       0.88807    0.23985    0.77883   1.00
H2       0.74416    0.30507    0.53525   1.00
H2       0.84407    0.21430    0.78649   1.00
H2       0.73805    0.32473    0.58239   1.00
H2       0.86612    0.21401    0.74002   1.00
C4       0.91251    0.64525    0.41910   1.00
C4       0.91097    0.68691    0.41924   1.00
C3       0.94172    0.62397    0.43968   1.00
C3       0.93590    0.71004    0.44317   1.00
C3       0.88404    0.62354    0.39766   1.00
C3       0.88359    0.70670    0.39474   1.00
C2       0.91453    0.56095    0.42040   1.00
C2       0.90920    0.77122    0.41814   1.00
C3       0.94264    0.58311    0.44052   1.00
C3       0.93523    0.75091    0.44254   1.00
C3       0.88587    0.58196    0.39945   1.00
C3       0.88400    0.74836    0.39480   1.00
H1       0.96364    0.63737    0.45451   1.00
H1       0.95521    0.69806    0.46224   1.00
C5       0.85491    0.64335    0.37506   1.00
C5       0.85664    0.68498    0.37122   1.00
H1       0.96437    0.56951    0.45603   1.00
H1       0.95407    0.76591    0.46039   1.00
H1       0.86598    0.56552    0.38481   1.00
H1       0.86515    0.76348    0.37757   1.00
C6       0.82252    0.62015    0.35595   1.00
C6       0.83073    0.70619    0.34239   1.00
H2       0.81175    0.59845    0.37655   1.00
H2       0.84797    0.72810    0.32711   1.00
H2       0.79665    0.63786    0.35118   1.00
H2       0.82180    0.68728    0.31854   1.00
C6       0.83500    0.60106    0.31629   1.00
C6       0.79346    0.72442    0.36166   1.00
H2       0.86390    0.58792    0.31939   1.00
H2       0.80152    0.73883    0.38896   1.00
C6       0.80718    0.56959    0.29833   1.00
C6       0.76922    0.75411    0.33680   1.00
H2       0.83867    0.62449    0.29498   1.00
H2       0.77423    0.70046    0.37018   1.00
C6       0.80526    0.53235    0.32400   1.00
C6       0.79250    0.79208    0.32870   1.00
C6       0.76538    0.58574    0.29234   1.00
C6       0.75597    0.73607    0.29753   1.00
C6       0.82341    0.55745    0.25780   1.00
C6       0.73211    0.76554    0.36016   1.00
H2       0.83440    0.52058    0.32931   1.00
H2       0.80283    0.80520    0.35585   1.00
H2       0.79185    0.53830    0.35219   1.00
H2       0.81780    0.78654    0.31029   1.00
H2       0.78799    0.50959    0.30994   1.00
H2       0.77446    0.81363    0.31373   1.00
H2       0.74698    0.56455    0.27727   1.00
H2       0.73679    0.75598    0.28170   1.00
H2       0.75157    0.59225    0.32024   1.00
H2       0.78094    0.72994    0.27880   1.00
H2       0.76598    0.61245    0.27502   1.00
H2       0.74019    0.70885    0.30237   1.00
H2       0.85280    0.54542    0.26044   1.00
H2       0.73985    0.77883    0.38807   1.00
H2       0.80507    0.53525    0.24416   1.00
H2       0.71430    0.78649    0.34407   1.00
H2       0.82473    0.58239    0.23805   1.00
H2       0.71401    0.74002    0.36612   1.00
C4       0.68475    0.41910    0.41749   1.00
C4       0.64309    0.41924    0.41903   1.00
C3       0.70603    0.43968    0.38828   1.00
C3       0.61996    0.44317    0.39410   1.00
C3       0.70646    0.39766    0.44596   1.00
C3       0.62330    0.39474    0.44641   1.00
C2       0.76905    0.42040    0.41547   1.00
C2       0.55878    0.41814    0.42080   1.00
C3       0.74689    0.44052    0.38736   1.00
C3       0.57909    0.44254    0.39477   1.00
C3       0.74804    0.39945    0.44413   1.00
C3       0.58164    0.39480    0.44600   1.00
H1       0.69263    0.45451    0.36636   1.00
H1       0.63194    0.46224    0.37479   1.00
C5       0.68665    0.37506    0.47509   1.00
C5       0.64502    0.37122    0.47336   1.00
H1       0.76049    0.45603    0.36563   1.00
H1       0.56409    0.46039    0.37593   1.00
H1       0.76448    0.38481    0.46402   1.00
H1       0.56652    0.37757    0.46485   1.00
C6       0.70985    0.35595    0.50748   1.00
C6       0.62381    0.34239    0.49927   1.00
H2       0.73155    0.37655    0.51825   1.00
H2       0.60190    0.32711    0.48203   1.00
H2       0.69214    0.35118    0.53335   1.00
H2       0.64272    0.31854    0.50820   1.00
C6       0.72894    0.31629    0.49500   1.00
C6       0.60558    0.36166    0.53654   1.00
H2       0.74208    0.31939    0.46610   1.00
H2       0.59117    0.38896    0.52848   1.00
C6       0.76041    0.29833    0.52282   1.00
C6       0.57589    0.33680    0.56078   1.00
H2       0.70551    0.29498    0.49133   1.00
H2       0.62954    0.37018    0.55577   1.00
C6       0.79765    0.32400    0.52474   1.00
C6       0.53792    0.32870    0.53750   1.00
C6       0.74426    0.29234    0.56462   1.00
C6       0.59393    0.29753    0.57403   1.00
C6       0.77255    0.25780    0.50659   1.00
C6       0.56446    0.36016    0.59789   1.00
H2       0.80942    0.32931    0.49560   1.00
H2       0.52480    0.35585    0.52717   1.00
H2       0.79170    0.35219    0.53815   1.00
H2       0.54346    0.31029    0.51220   1.00
H2       0.82041    0.30994    0.54201   1.00
H2       0.51637    0.31373    0.55554   1.00
H2       0.76545    0.27727    0.58302   1.00
H2       0.57402    0.28170    0.59321   1.00
H2       0.73775    0.32024    0.57843   1.00
H2       0.60006    0.27880    0.54906   1.00
H2       0.71755    0.27502    0.56402   1.00
H2       0.62115    0.30237    0.58981   1.00
H2       0.78458    0.26044    0.47720   1.00
H2       0.55117    0.38807    0.59015   1.00
H2       0.79475    0.24416    0.52493   1.00
H2       0.54351    0.34407    0.61570   1.00
H2       0.74761    0.23805    0.50527   1.00
H2       0.58998    0.36612    0.61599   1.00
C4       1.14525    0.41910    0.41251   1.00
C4       1.18691    0.41924    0.41097   1.00
C3       1.12397    0.43968    0.44172   1.00
C3       1.21004    0.44317    0.43590   1.00
C3       1.12354    0.39766    0.38404   1.00
C3       1.20670    0.39474    0.38359   1.00
C2       1.06095    0.42040    0.41453   1.00
C2       1.27122    0.41814    0.40920   1.00
C3       1.08311    0.44052    0.44264   1.00
C3       1.25091    0.44254    0.43523   1.00
C3       1.08196    0.39945    0.38587   1.00
C3       1.24836    0.39480    0.38400   1.00
H1       1.13737    0.45451    0.46364   1.00
H1       1.19806    0.46224    0.45521   1.00
C5       1.14335    0.37506    0.35491   1.00
C5       1.18498    0.37122    0.35664   1.00
H1       1.06951    0.45603    0.46437   1.00
H1       1.26591    0.46039    0.45407   1.00
H1       1.06552    0.38481    0.36598   1.00
H1       1.26348    0.37757    0.36515   1.00
C6       1.12015    0.35595    0.32252   1.00
C6       1.20619    0.34239    0.33073   1.00
H2       1.09845    0.37655    0.31175   1.00
H2       1.22810    0.32711    0.34797   1.00
H2       1.13786    0.35118    0.29665   1.00
H2       1.18728    0.31854    0.32180   1.00
C6       1.10106    0.31629    0.33500   1.00
C6       1.22442    0.36166    0.29346   1.00
H2       1.08792    0.31939    0.36390   1.00
H2       1.23883    0.38896    0.30152   1.00
C6       1.06959    0.29833    0.30718   1.00
C6       1.25411    0.33680    0.26922   1.00
H2       1.12449    0.29498    0.33867   1.00
H2       1.20046    0.37018    0.27423   1.00
C6       1.03235    0.32400    0.30526   1.00
C6       1.29208    0.32870    0.29250   1.00
C6       1.08574    0.29234    0.26538   1.00
C6       1.23607    0.29753    0.25597   1.00
C6       1.05745    0.25780    0.32341   1.00
C6       1.26554    0.36016    0.23211   1.00
H2       1.02058    0.32931    0.33440   1.00
H2       1.30520    0.35585    0.30283   1.00
H2       1.03830    0.35219    0.29185   1.00
H2       1.28654    0.31029    0.31780   1.00
H2       1.00959    0.30994    0.28799   1.00
H2       1.31363    0.31373    0.27446   1.00
H2       1.06455    0.27727    0.24698   1.00
H2       1.25598    0.28170    0.23679   1.00
H2       1.09225    0.32024    0.25157   1.00
H2       1.22994    0.27880    0.28094   1.00
H2       1.11245    0.27502    0.26598   1.00
H2       1.20885    0.30237    0.24019   1.00
H2       1.04542    0.26044    0.35280   1.00
H2       1.27883    0.38807    0.23985   1.00
H2       1.03525    0.24416    0.30507   1.00
H2       1.28649    0.34407    0.21430   1.00
H2       1.08239    0.23805    0.32473   1.00
H2       1.24002    0.36612    0.21401   1.00
C4       0.91749    0.18475    0.41910   1.00
C4       0.91903    0.14309    0.41924   1.00
C3       0.88828    0.20603    0.43968   1.00
C3       0.89410    0.11996    0.44317   1.00
C3       0.94596    0.20646    0.39766   1.00
C3       0.94641    0.12330    0.39474   1.00
C2       0.91547    0.26905    0.42040   1.00
C2       0.92080    0.05878    0.41814   1.00
C3       0.88736    0.24689    0.44052   1.00
C3       0.89477    0.07909    0.44254   1.00
C3       0.94413    0.24804    0.39945   1.00
C3       0.94600    0.08164    0.39480   1.00
H1       0.86636    0.19263    0.45451   1.00
H1       0.87479    0.13194    0.46224   1.00
C5       0.97509    0.18665    0.37506   1.00
C5       0.97336    0.14502    0.37122   1.00
H1       0.86563    0.26049    0.45603   1.00
H1       0.87593    0.06409    0.46039   1.00
H1       0.96402    0.26448    0.38481   1.00
H1       0.96485    0.06652    0.37757   1.00
C6       1.00748    0.20985    0.35595   1.00
C6       0.99927    0.12381    0.34239   1.00
H2       1.01825    0.23155    0.37655   1.00
H2       0.98203    0.10190    0.32711   1.00
H2       1.03335    0.19214    0.35118   1.00
H2       1.00820    0.14272    0.31854   1.00
C6       0.99500    0.22894    0.31629   1.00
C6       1.03654    0.10558    0.36166   1.00
H2       0.96610    0.24208    0.31939   1.00
H2       1.02848    0.09117    0.38896   1.00
C6       1.02282    0.26041    0.29833   1.00
C6       1.06078    0.07589    0.33680   1.00
H2       0.99133    0.20551    0.29498   1.00
H2       1.05577    0.12954    0.37018   1.00
C6       1.02474    0.29765    0.32400   1.00
C6       1.03750    0.03792    0.32870   1.00
C6       1.06462    0.24426    0.29234   1.00
C6       1.07403    0.09393    0.29753   1.00
C6       1.00659    0.27255    0.25780   1.00
C6       1.09789    0.06446    0.36016   1.00
H2       0.99560    0.30942    0.32931   1.00
H2       1.02717    0.02480    0.35585   1.00
H2       1.03815    0.29170    0.35219   1.00
H2       1.01220    0.04346    0.31029   1.00
H2       1.04201    0.32041    0.30994   1.00
H2       1.05554    0.01637    0.31373   1.00
H2       1.08302    0.26545    0.27727   1.00
H2       1.09321    0.07402    0.28170   1.00
H2       1.07843    0.23775    0.32024   1.00
H2       1.04906    0.10006    0.27880   1.00
H2       1.06402    0.21755    0.27502   1.00
H2       1.08981    0.12115    0.30237   1.00
H2       0.97720    0.28458    0.26044   1.00
H2       1.09015    0.05117    0.38807   1.00
H2       1.02493    0.29475    0.24416   1.00
H2       1.11570    0.04351    0.34407   1.00
H2       1.00527    0.24761    0.23805   1.00
H2       1.11599    0.08998    0.36612   1.00
C4       0.91910    0.41749    0.18475   1.00
C4       0.91924    0.41903    0.14309   1.00
C3       0.93968    0.38828    0.20603   1.00
C3       0.94317    0.39410    0.11996   1.00
C3       0.89766    0.44596    0.20646   1.00
C3       0.89474    0.44641    0.12330   1.00
C2       0.92040    0.41547    0.26905   1.00
C2       0.91814    0.42080    0.05878   1.00
C3       0.94052    0.38736    0.24689   1.00
C3       0.94254    0.39477    0.07909   1.00
C3       0.89945    0.44413    0.24804   1.00
C3       0.89480    0.44600    0.08164   1.00
H1       0.95451    0.36636    0.19263   1.00
H1       0.96224    0.37479    0.13194   1.00
C5       0.87506    0.47509    0.18665   1.00
C5       0.87122    0.47336    0.14502   1.00
H1       0.95603    0.36563    0.26049   1.00
H1       0.96039    0.37593    0.06409   1.00
H1       0.88481    0.46402    0.26448   1.00
H1       0.87757    0.46485    0.06652   1.00
C6       0.85595    0.50748    0.20985   1.00
C6       0.84239    0.49927    0.12381   1.00
H2       0.87655    0.51825    0.23155   1.00
H2       0.82711    0.48203    0.10190   1.00
H2       0.85118    0.53335    0.19214   1.00
H2       0.81854    0.50820    0.14272   1.00
C6       0.81629    0.49500    0.22894   1.00
C6       0.86166    0.53654    0.10558   1.00
H2       0.81939    0.46610    0.24208   1.00
H2       0.88896    0.52848    0.09117   1.00
C6       0.79833    0.52282    0.26041   1.00
C6       0.83680    0.56078    0.07589   1.00
H2       0.79498    0.49133    0.20551   1.00
H2       0.87018    0.55577    0.12954   1.00
C6       0.82400    0.52474    0.29765   1.00
C6       0.82870    0.53750    0.03792   1.00
C6       0.79234    0.56462    0.24426   1.00
C6       0.79753    0.57403    0.09393   1.00
C6       0.75780    0.50659    0.27255   1.00
C6       0.86016    0.59789    0.06446   1.00
H2       0.82931    0.49560    0.30942   1.00
H2       0.85585    0.52717    0.02480   1.00
H2       0.85219    0.53815    0.29170   1.00
H2       0.81029    0.51220    0.04346   1.00
H2       0.80994    0.54201    0.32041   1.00
H2       0.81373    0.55554    0.01637   1.00
H2       0.77727    0.58302    0.26545   1.00
H2       0.78170    0.59321    0.07402   1.00
H2       0.82024    0.57843    0.23775   1.00
H2       0.77880    0.54906    0.10006   1.00
H2       0.77502    0.56402    0.21755   1.00
H2       0.80237    0.58981    0.12115   1.00
H2       0.76044    0.47720    0.28458   1.00
H2       0.88807    0.59015    0.05117   1.00
H2       0.74416    0.52493    0.29475   1.00
H2       0.84407    0.61570    0.04351   1.00
H2       0.73805    0.50527    0.24761   1.00
H2       0.86612    0.61599    0.08998   1.00
