data_IRMOF10_SG202_interpen_Ligand1cp_label_a.

_audit_creation_method             'generated by an auxiliary program of Tobunporous'

_symmetry_space_group_name_H-M     'P 1'
_symmetry_Int_Tables_number        1
_symmetry_cell_setting             triclinic

_cell_length_a                    34.2800
_cell_length_b                    34.2800
_cell_length_c                    34.2800
_cell_angle_alpha                 90.0000
_cell_angle_beta                  90.0000
_cell_angle_gamma                 90.0000

loop_
_atom_site_label
_atom_site_fract_x
_atom_site_fract_y
_atom_site_fract_z
_atom_site_occupancy
O1       0.75000    0.75000    0.75000   1.00
Zn1      0.71720    0.78280    0.78280   1.00
Zn1      0.78280    0.71720    0.78280   1.00
Zn1      0.78280    0.78280    0.71720   1.00
Zn1      0.71720    0.71720    0.71720   1.00
O2       0.72650    0.77350    0.83820   1.00
O2       0.72650    0.83820    0.77350   1.00
O2       0.66180    0.77350    0.77350   1.00
O2       0.77350    0.72650    0.83820   1.00
O2       0.83820    0.72650    0.77350   1.00
O2       0.77350    0.66180    0.77350   1.00
O2       0.77350    0.83820    0.72650   1.00
O2       0.83820    0.77350    0.72650   1.00
O2       0.77350    0.77350    0.66180   1.00
O2       0.66180    0.72650    0.72650   1.00
O2       0.72650    0.66180    0.72650   1.00
O2       0.72650    0.72650    0.66180   1.00
C1       0.75000    0.75000    0.85520   1.00
C1       0.75000    0.85520    0.75000   1.00
C1       0.64480    0.75000    0.75000   1.00
C1       0.85520    0.75000    0.75000   1.00
C1       0.75000    0.64480    0.75000   1.00
C1       0.75000    0.75000    0.64480   1.00
O1       0.25000    0.25000    0.75000   1.00
Zn1      0.21720    0.28280    0.78280   1.00
Zn1      0.28280    0.21720    0.78280   1.00
Zn1      0.28280    0.28280    0.71720   1.00
Zn1      0.21720    0.21720    0.71720   1.00
O2       0.22650    0.27350    0.83820   1.00
O2       0.22650    0.33820    0.77350   1.00
O2       0.16180    0.27350    0.77350   1.00
O2       0.27350    0.22650    0.83820   1.00
O2       0.33820    0.22650    0.77350   1.00
O2       0.27350    0.16180    0.77350   1.00
O2       0.27350    0.33820    0.72650   1.00
O2       0.33820    0.27350    0.72650   1.00
O2       0.27350    0.27350    0.66180   1.00
O2       0.16180    0.22650    0.72650   1.00
O2       0.22650    0.16180    0.72650   1.00
O2       0.22650    0.22650    0.66180   1.00
C1       0.25000    0.25000    0.85520   1.00
C1       0.25000    0.35520    0.75000   1.00
C1       0.14480    0.25000    0.75000   1.00
C1       0.35520    0.25000    0.75000   1.00
C1       0.25000    0.14480    0.75000   1.00
C1       0.25000    0.25000    0.64480   1.00
O1       0.25000    0.75000    0.25000   1.00
Zn1      0.21720    0.78280    0.28280   1.00
Zn1      0.28280    0.71720    0.28280   1.00
Zn1      0.28280    0.78280    0.21720   1.00
Zn1      0.21720    0.71720    0.21720   1.00
O2       0.22650    0.77350    0.33820   1.00
O2       0.22650    0.83820    0.27350   1.00
O2       0.16180    0.77350    0.27350   1.00
O2       0.27350    0.72650    0.33820   1.00
O2       0.33820    0.72650    0.27350   1.00
O2       0.27350    0.66180    0.27350   1.00
O2       0.27350    0.83820    0.22650   1.00
O2       0.33820    0.77350    0.22650   1.00
O2       0.27350    0.77350    0.16180   1.00
O2       0.16180    0.72650    0.22650   1.00
O2       0.22650    0.66180    0.22650   1.00
O2       0.22650    0.72650    0.16180   1.00
C1       0.25000    0.75000    0.35520   1.00
C1       0.25000    0.85520    0.25000   1.00
C1       0.14480    0.75000    0.25000   1.00
C1       0.35520    0.75000    0.25000   1.00
C1       0.25000    0.64480    0.25000   1.00
C1       0.25000    0.75000    0.14480   1.00
O1       0.75000    0.25000    0.25000   1.00
Zn1      0.71720    0.28280    0.28280   1.00
Zn1      0.78280    0.21720    0.28280   1.00
Zn1      0.78280    0.28280    0.21720   1.00
Zn1      0.71720    0.21720    0.21720   1.00
O2       0.72650    0.27350    0.33820   1.00
O2       0.72650    0.33820    0.27350   1.00
O2       0.66180    0.27350    0.27350   1.00
O2       0.77350    0.22650    0.33820   1.00
O2       0.83820    0.22650    0.27350   1.00
O2       0.77350    0.16180    0.27350   1.00
O2       0.77350    0.33820    0.22650   1.00
O2       0.83820    0.27350    0.22650   1.00
O2       0.77350    0.27350    0.16180   1.00
O2       0.66180    0.22650    0.22650   1.00
O2       0.72650    0.16180    0.22650   1.00
O2       0.72650    0.22650    0.16180   1.00
C1       0.75000    0.25000    0.35520   1.00
C1       0.75000    0.35520    0.25000   1.00
C1       0.64480    0.25000    0.25000   1.00
C1       0.85520    0.25000    0.25000   1.00
C1       0.75000    0.14480    0.25000   1.00
C1       0.75000    0.25000    0.14480   1.00
O1       0.25000    0.25000    0.25000   1.00
Zn1      0.28280    0.21720    0.21720   1.00
Zn1      0.21720    0.28280    0.21720   1.00
Zn1      0.21720    0.21720    0.28280   1.00
Zn1      0.28280    0.28280    0.28280   1.00
O2       0.27350    0.22650    0.16180   1.00
O2       0.27350    0.16180    0.22650   1.00
O2       0.33820    0.22650    0.22650   1.00
O2       0.22650    0.27350    0.16180   1.00
O2       0.16180    0.27350    0.22650   1.00
O2       0.22650    0.33820    0.22650   1.00
O2       0.22650    0.16180    0.27350   1.00
O2       0.16180    0.22650    0.27350   1.00
O2       0.22650    0.22650    0.33820   1.00
O2       0.33820    0.27350    0.27350   1.00
O2       0.27350    0.33820    0.27350   1.00
O2       0.27350    0.27350    0.33820   1.00
C1       0.25000    0.25000    0.14480   1.00
C1       0.25000    0.14480    0.25000   1.00
C1       0.35520    0.25000    0.25000   1.00
C1       0.14480    0.25000    0.25000   1.00
C1       0.25000    0.35520    0.25000   1.00
C1       0.25000    0.25000    0.35520   1.00
O1       0.75000    0.75000    0.25000   1.00
Zn1      0.78280    0.71720    0.21720   1.00
Zn1      0.71720    0.78280    0.21720   1.00
Zn1      0.71720    0.71720    0.28280   1.00
Zn1      0.78280    0.78280    0.28280   1.00
O2       0.77350    0.72650    0.16180   1.00
O2       0.77350    0.66180    0.22650   1.00
O2       0.83820    0.72650    0.22650   1.00
O2       0.72650    0.77350    0.16180   1.00
O2       0.66180    0.77350    0.22650   1.00
O2       0.72650    0.83820    0.22650   1.00
O2       0.72650    0.66180    0.27350   1.00
O2       0.66180    0.72650    0.27350   1.00
O2       0.72650    0.72650    0.33820   1.00
O2       0.83820    0.77350    0.27350   1.00
O2       0.77350    0.83820    0.27350   1.00
O2       0.77350    0.77350    0.33820   1.00
C1       0.75000    0.75000    0.14480   1.00
C1       0.75000    0.64480    0.25000   1.00
C1       0.85520    0.75000    0.25000   1.00
C1       0.64480    0.75000    0.25000   1.00
C1       0.75000    0.85520    0.25000   1.00
C1       0.75000    0.75000    0.35520   1.00
O1       0.75000    0.25000    0.75000   1.00
Zn1      0.78280    0.21720    0.71720   1.00
Zn1      0.71720    0.28280    0.71720   1.00
Zn1      0.71720    0.21720    0.78280   1.00
Zn1      0.78280    0.28280    0.78280   1.00
O2       0.77350    0.22650    0.66180   1.00
O2       0.77350    0.16180    0.72650   1.00
O2       0.83820    0.22650    0.72650   1.00
O2       0.72650    0.27350    0.66180   1.00
O2       0.66180    0.27350    0.72650   1.00
O2       0.72650    0.33820    0.72650   1.00
O2       0.72650    0.16180    0.77350   1.00
O2       0.66180    0.22650    0.77350   1.00
O2       0.72650    0.22650    0.83820   1.00
O2       0.83820    0.27350    0.77350   1.00
O2       0.77350    0.33820    0.77350   1.00
O2       0.77350    0.27350    0.83820   1.00
C1       0.75000    0.25000    0.64480   1.00
C1       0.75000    0.14480    0.75000   1.00
C1       0.85520    0.25000    0.75000   1.00
C1       0.64480    0.25000    0.75000   1.00
C1       0.75000    0.35520    0.75000   1.00
C1       0.75000    0.25000    0.85520   1.00
O1       0.25000    0.75000    0.75000   1.00
Zn1      0.28280    0.71720    0.71720   1.00
Zn1      0.21720    0.78280    0.71720   1.00
Zn1      0.21720    0.71720    0.78280   1.00
Zn1      0.28280    0.78280    0.78280   1.00
O2       0.27350    0.72650    0.66180   1.00
O2       0.27350    0.66180    0.72650   1.00
O2       0.33820    0.72650    0.72650   1.00
O2       0.22650    0.77350    0.66180   1.00
O2       0.16180    0.77350    0.72650   1.00
O2       0.22650    0.83820    0.72650   1.00
O2       0.22650    0.66180    0.77350   1.00
O2       0.16180    0.72650    0.77350   1.00
O2       0.22650    0.72650    0.83820   1.00
O2       0.33820    0.77350    0.77350   1.00
O2       0.27350    0.83820    0.77350   1.00
O2       0.27350    0.77350    0.83820   1.00
C1       0.25000    0.75000    0.64480   1.00
C1       0.25000    0.64480    0.75000   1.00
C1       0.35520    0.75000    0.75000   1.00
C1       0.14480    0.75000    0.75000   1.00
C1       0.25000    0.85520    0.75000   1.00
C1       0.25000    0.75000    0.85520   1.00
O1       0.91500    0.91500    0.91500   1.00
Zn1      0.88220    0.94780    0.94780   1.00
Zn1      0.94780    0.88220    0.94780   1.00
Zn1      0.94780    0.94780    0.88220   1.00
Zn1      0.88220    0.88220    0.88220   1.00
O2       0.89150    0.93850    1.00320   1.00
O2       0.89150    1.00320    0.93850   1.00
O2       0.82680    0.93850    0.93850   1.00
O2       0.93850    0.89150    1.00320   1.00
O2       1.00320    0.89150    0.93850   1.00
O2       0.93850    0.82680    0.93850   1.00
O2       0.93850    1.00320    0.89150   1.00
O2       1.00320    0.93850    0.89150   1.00
O2       0.93850    0.93850    0.82680   1.00
O2       0.82680    0.89150    0.89150   1.00
O2       0.89150    0.82680    0.89150   1.00
O2       0.89150    0.89150    0.82680   1.00
C1       0.91500    0.91500    1.02020   1.00
C1       0.91500    1.02020    0.91500   1.00
C1       0.80980    0.91500    0.91500   1.00
C1       1.02020    0.91500    0.91500   1.00
C1       0.91500    0.80980    0.91500   1.00
C1       0.91500    0.91500    0.80980   1.00
O1       0.41500    0.41500    0.91500   1.00
Zn1      0.38220    0.44780    0.94780   1.00
Zn1      0.44780    0.38220    0.94780   1.00
Zn1      0.44780    0.44780    0.88220   1.00
Zn1      0.38220    0.38220    0.88220   1.00
O2       0.39150    0.43850    1.00320   1.00
O2       0.39150    0.50320    0.93850   1.00
O2       0.32680    0.43850    0.93850   1.00
O2       0.43850    0.39150    1.00320   1.00
O2       0.50320    0.39150    0.93850   1.00
O2       0.43850    0.32680    0.93850   1.00
O2       0.43850    0.50320    0.89150   1.00
O2       0.50320    0.43850    0.89150   1.00
O2       0.43850    0.43850    0.82680   1.00
O2       0.32680    0.39150    0.89150   1.00
O2       0.39150    0.32680    0.89150   1.00
O2       0.39150    0.39150    0.82680   1.00
C1       0.41500    0.41500    1.02020   1.00
C1       0.41500    0.52020    0.91500   1.00
C1       0.30980    0.41500    0.91500   1.00
C1       0.52020    0.41500    0.91500   1.00
C1       0.41500    0.30980    0.91500   1.00
C1       0.41500    0.41500    0.80980   1.00
O1       0.41500    0.91500    0.41500   1.00
Zn1      0.38220    0.94780    0.44780   1.00
Zn1      0.44780    0.88220    0.44780   1.00
Zn1      0.44780    0.94780    0.38220   1.00
Zn1      0.38220    0.88220    0.38220   1.00
O2       0.39150    0.93850    0.50320   1.00
O2       0.39150    1.00320    0.43850   1.00
O2       0.32680    0.93850    0.43850   1.00
O2       0.43850    0.89150    0.50320   1.00
O2       0.50320    0.89150    0.43850   1.00
O2       0.43850    0.82680    0.43850   1.00
O2       0.43850    1.00320    0.39150   1.00
O2       0.50320    0.93850    0.39150   1.00
O2       0.43850    0.93850    0.32680   1.00
O2       0.32680    0.89150    0.39150   1.00
O2       0.39150    0.82680    0.39150   1.00
O2       0.39150    0.89150    0.32680   1.00
C1       0.41500    0.91500    0.52020   1.00
C1       0.41500    1.02020    0.41500   1.00
C1       0.30980    0.91500    0.41500   1.00
C1       0.52020    0.91500    0.41500   1.00
C1       0.41500    0.80980    0.41500   1.00
C1       0.41500    0.91500    0.30980   1.00
O1       0.91500    0.41500    0.41500   1.00
Zn1      0.88220    0.44780    0.44780   1.00
Zn1      0.94780    0.38220    0.44780   1.00
Zn1      0.94780    0.44780    0.38220   1.00
Zn1      0.88220    0.38220    0.38220   1.00
O2       0.89150    0.43850    0.50320   1.00
O2       0.89150    0.50320    0.43850   1.00
O2       0.82680    0.43850    0.43850   1.00
O2       0.93850    0.39150    0.50320   1.00
O2       1.00320    0.39150    0.43850   1.00
O2       0.93850    0.32680    0.43850   1.00
O2       0.93850    0.50320    0.39150   1.00
O2       1.00320    0.43850    0.39150   1.00
O2       0.93850    0.43850    0.32680   1.00
O2       0.82680    0.39150    0.39150   1.00
O2       0.89150    0.32680    0.39150   1.00
O2       0.89150    0.39150    0.32680   1.00
C1       0.91500    0.41500    0.52020   1.00
C1       0.91500    0.52020    0.41500   1.00
C1       0.80980    0.41500    0.41500   1.00
C1       1.02020    0.41500    0.41500   1.00
C1       0.91500    0.30980    0.41500   1.00
C1       0.91500    0.41500    0.30980   1.00
O1       0.41500    0.41500    0.41500   1.00
Zn1      0.44780    0.38220    0.38220   1.00
Zn1      0.38220    0.44780    0.38220   1.00
Zn1      0.38220    0.38220    0.44780   1.00
Zn1      0.44780    0.44780    0.44780   1.00
O2       0.43850    0.39150    0.32680   1.00
O2       0.43850    0.32680    0.39150   1.00
O2       0.50320    0.39150    0.39150   1.00
O2       0.39150    0.43850    0.32680   1.00
O2       0.32680    0.43850    0.39150   1.00
O2       0.39150    0.50320    0.39150   1.00
O2       0.39150    0.32680    0.43850   1.00
O2       0.32680    0.39150    0.43850   1.00
O2       0.39150    0.39150    0.50320   1.00
O2       0.50320    0.43850    0.43850   1.00
O2       0.43850    0.50320    0.43850   1.00
O2       0.43850    0.43850    0.50320   1.00
C1       0.41500    0.41500    0.30980   1.00
C1       0.41500    0.30980    0.41500   1.00
C1       0.52020    0.41500    0.41500   1.00
C1       0.30980    0.41500    0.41500   1.00
C1       0.41500    0.52020    0.41500   1.00
C1       0.41500    0.41500    0.52020   1.00
O1       0.91500    0.91500    0.41500   1.00
Zn1      0.94780    0.88220    0.38220   1.00
Zn1      0.88220    0.94780    0.38220   1.00
Zn1      0.88220    0.88220    0.44780   1.00
Zn1      0.94780    0.94780    0.44780   1.00
O2       0.93850    0.89150    0.32680   1.00
O2       0.93850    0.82680    0.39150   1.00
O2       1.00320    0.89150    0.39150   1.00
O2       0.89150    0.93850    0.32680   1.00
O2       0.82680    0.93850    0.39150   1.00
O2       0.89150    1.00320    0.39150   1.00
O2       0.89150    0.82680    0.43850   1.00
O2       0.82680    0.89150    0.43850   1.00
O2       0.89150    0.89150    0.50320   1.00
O2       1.00320    0.93850    0.43850   1.00
O2       0.93850    1.00320    0.43850   1.00
O2       0.93850    0.93850    0.50320   1.00
C1       0.91500    0.91500    0.30980   1.00
C1       0.91500    0.80980    0.41500   1.00
C1       1.02020    0.91500    0.41500   1.00
C1       0.80980    0.91500    0.41500   1.00
C1       0.91500    1.02020    0.41500   1.00
C1       0.91500    0.91500    0.52020   1.00
O1       0.91500    0.41500    0.91500   1.00
Zn1      0.94780    0.38220    0.88220   1.00
Zn1      0.88220    0.44780    0.88220   1.00
Zn1      0.88220    0.38220    0.94780   1.00
Zn1      0.94780    0.44780    0.94780   1.00
O2       0.93850    0.39150    0.82680   1.00
O2       0.93850    0.32680    0.89150   1.00
O2       1.00320    0.39150    0.89150   1.00
O2       0.89150    0.43850    0.82680   1.00
O2       0.82680    0.43850    0.89150   1.00
O2       0.89150    0.50320    0.89150   1.00
O2       0.89150    0.32680    0.93850   1.00
O2       0.82680    0.39150    0.93850   1.00
O2       0.89150    0.39150    1.00320   1.00
O2       1.00320    0.43850    0.93850   1.00
O2       0.93850    0.50320    0.93850   1.00
O2       0.93850    0.43850    1.00320   1.00
C1       0.91500    0.41500    0.80980   1.00
C1       0.91500    0.30980    0.91500   1.00
C1       1.02020    0.41500    0.91500   1.00
C1       0.80980    0.41500    0.91500   1.00
C1       0.91500    0.52020    0.91500   1.00
C1       0.91500    0.41500    1.02020   1.00
O1       0.41500    0.91500    0.91500   1.00
Zn1      0.44780    0.88220    0.88220   1.00
Zn1      0.38220    0.94780    0.88220   1.00
Zn1      0.38220    0.88220    0.94780   1.00
Zn1      0.44780    0.94780    0.94780   1.00
O2       0.43850    0.89150    0.82680   1.00
O2       0.43850    0.82680    0.89150   1.00
O2       0.50320    0.89150    0.89150   1.00
O2       0.39150    0.93850    0.82680   1.00
O2       0.32680    0.93850    0.89150   1.00
O2       0.39150    1.00320    0.89150   1.00
O2       0.39150    0.82680    0.93850   1.00
O2       0.32680    0.89150    0.93850   1.00
O2       0.39150    0.89150    1.00320   1.00
O2       0.50320    0.93850    0.93850   1.00
O2       0.43850    1.00320    0.93850   1.00
O2       0.43850    0.93850    1.00320   1.00
C1       0.41500    0.91500    0.80980   1.00
C1       0.41500    0.80980    0.91500   1.00
C1       0.52020    0.91500    0.91500   1.00
C1       0.30980    0.91500    0.91500   1.00
C1       0.41500    1.02020    0.91500   1.00
C1       0.41500    0.91500    1.02020   1.00
C2       0.74713    0.75083    0.89757   1.00
C3a      0.72293    0.77600    0.91884   1.00
H1       0.70335    0.79570    0.90369   1.00
C3a      0.77247    0.72533    0.91704   1.00
H1       0.79116    0.70588    0.90051   1.00
C3b      0.72379    0.77595    0.95938   1.00
C5       0.69739    0.80339    0.98144   1.00
H2       0.71502    0.82334    0.99984   1.00
H2       0.67927    0.82150    0.96161   1.00
H2       0.67744    0.78658    1.00060   1.00
C3b      0.77388    0.72472    0.95756   1.00
C5       0.80147    0.69694    0.97767   1.00
H2       0.78489    0.67669    0.99670   1.00
H2       0.81843    0.67916    0.95655   1.00
H2       0.82246    0.71345    0.99594   1.00
C4       0.74940    0.75017    0.97873   1.00
C4       0.75060    0.74983    1.02127   1.00
C3b      0.77678    0.77472    1.04101   1.00
C5       0.80379    0.80191    1.01937   1.00
H2       0.78662    0.82253    1.00129   1.00
H2       0.82230    0.81929    1.03949   1.00
H2       0.82336    0.78495    0.99995   1.00
C3b      0.72555    0.72461    1.04204   1.00
C5       0.69735    0.69776    1.02152   1.00
H2       0.71348    0.67744    1.00217   1.00
H2       0.67999    0.68005    1.04235   1.00
H2       0.67674    0.71502    1.00350   1.00
C3a      0.77763    0.77412    1.08155   1.00
H1       0.79765    0.79314    1.09700   1.00
C3a      0.72697    0.72455    1.08257   1.00
H1       0.70785    0.70528    1.09881   1.00
C2       0.75287    0.74917    1.10243   1.00
C2       0.75083    0.89757    0.74713   1.00
C3a      0.77600    0.91884    0.72293   1.00
H1       0.79570    0.90369    0.70335   1.00
C3a      0.72533    0.91704    0.77247   1.00
H1       0.70588    0.90051    0.79116   1.00
C3b      0.77595    0.95938    0.72379   1.00
C5       0.80339    0.98144    0.69739   1.00
H2       0.82334    0.99984    0.71502   1.00
H2       0.82150    0.96161    0.67927   1.00
H2       0.78658    1.00060    0.67744   1.00
C3b      0.72472    0.95756    0.77388   1.00
C5       0.69694    0.97767    0.80147   1.00
H2       0.67669    0.99670    0.78489   1.00
H2       0.67916    0.95655    0.81843   1.00
H2       0.71345    0.99594    0.82246   1.00
C4       0.75017    0.97873    0.74940   1.00
C4       0.74983    1.02127    0.75060   1.00
C3b      0.77472    1.04101    0.77678   1.00
C5       0.80191    1.01937    0.80379   1.00
H2       0.82253    1.00129    0.78662   1.00
H2       0.81929    1.03949    0.82230   1.00
H2       0.78495    0.99995    0.82336   1.00
C3b      0.72461    1.04204    0.72555   1.00
C5       0.69776    1.02152    0.69735   1.00
H2       0.67744    1.00217    0.71348   1.00
H2       0.68005    1.04235    0.67999   1.00
H2       0.71502    1.00350    0.67674   1.00
C3a      0.77412    1.08155    0.77763   1.00
H1       0.79314    1.09700    0.79765   1.00
C3a      0.72455    1.08257    0.72697   1.00
H1       0.70528    1.09881    0.70785   1.00
C2       0.74917    1.10243    0.75287   1.00
C2       0.60243    0.74713    0.74917   1.00
C3a      0.58116    0.72293    0.72400   1.00
H1       0.59631    0.70335    0.70430   1.00
C3a      0.58296    0.77247    0.77467   1.00
H1       0.59949    0.79116    0.79412   1.00
C3b      0.54062    0.72379    0.72405   1.00
C5       0.51856    0.69739    0.69661   1.00
H2       0.50016    0.71502    0.67666   1.00
H2       0.53839    0.67927    0.67850   1.00
H2       0.49940    0.67744    0.71342   1.00
C3b      0.54244    0.77388    0.77528   1.00
C5       0.52233    0.80147    0.80306   1.00
H2       0.50330    0.78489    0.82331   1.00
H2       0.54345    0.81843    0.82084   1.00
H2       0.50406    0.82246    0.78655   1.00
C4       0.52127    0.74940    0.74983   1.00
C4       0.47873    0.75060    0.75017   1.00
C3b      0.45899    0.77678    0.72528   1.00
C5       0.48063    0.80379    0.69809   1.00
H2       0.49871    0.78662    0.67747   1.00
H2       0.46051    0.82230    0.68071   1.00
H2       0.50005    0.82336    0.71505   1.00
C3b      0.45796    0.72555    0.77539   1.00
C5       0.47848    0.69735    0.80224   1.00
H2       0.49783    0.71348    0.82256   1.00
H2       0.45765    0.67999    0.81995   1.00
H2       0.49650    0.67674    0.78498   1.00
C3a      0.41845    0.77763    0.72588   1.00
H1       0.40300    0.79765    0.70686   1.00
C3a      0.41743    0.72697    0.77545   1.00
H1       0.40119    0.70785    0.79472   1.00
C2       0.39757    0.75287    0.75083   1.00
C2       0.89757    0.74713    0.75083   1.00
C3a      0.91884    0.72293    0.77600   1.00
H1       0.90369    0.70335    0.79570   1.00
C3a      0.91704    0.77247    0.72533   1.00
H1       0.90051    0.79116    0.70588   1.00
C3b      0.95938    0.72379    0.77595   1.00
C5       0.98144    0.69739    0.80339   1.00
H2       0.99984    0.71502    0.82334   1.00
H2       0.96161    0.67927    0.82150   1.00
H2       1.00060    0.67744    0.78658   1.00
C3b      0.95756    0.77388    0.72472   1.00
C5       0.97767    0.80147    0.69694   1.00
H2       0.99670    0.78489    0.67669   1.00
H2       0.95655    0.81843    0.67916   1.00
H2       0.99594    0.82246    0.71345   1.00
C4       0.97873    0.74940    0.75017   1.00
C4       1.02127    0.75060    0.74983   1.00
C3b      1.04101    0.77678    0.77472   1.00
C5       1.01937    0.80379    0.80191   1.00
H2       1.00129    0.78662    0.82253   1.00
H2       1.03949    0.82230    0.81929   1.00
H2       0.99995    0.82336    0.78495   1.00
C3b      1.04204    0.72555    0.72461   1.00
C5       1.02152    0.69735    0.69776   1.00
H2       1.00217    0.71348    0.67744   1.00
H2       1.04235    0.67999    0.68005   1.00
H2       1.00350    0.67674    0.71502   1.00
C3a      1.08155    0.77763    0.77412   1.00
H1       1.09700    0.79765    0.79314   1.00
C3a      1.08257    0.72697    0.72455   1.00
H1       1.09881    0.70785    0.70528   1.00
C2       1.10243    0.75287    0.74917   1.00
C2       0.74917    0.60243    0.74713   1.00
C3a      0.72400    0.58116    0.72293   1.00
H1       0.70430    0.59631    0.70335   1.00
C3a      0.77467    0.58296    0.77247   1.00
H1       0.79412    0.59949    0.79116   1.00
C3b      0.72405    0.54062    0.72379   1.00
C5       0.69661    0.51856    0.69739   1.00
H2       0.67666    0.50016    0.71502   1.00
H2       0.67850    0.53839    0.67927   1.00
H2       0.71342    0.49940    0.67744   1.00
C3b      0.77528    0.54244    0.77388   1.00
C5       0.80306    0.52233    0.80147   1.00
H2       0.82331    0.50330    0.78489   1.00
H2       0.82084    0.54345    0.81843   1.00
H2       0.78655    0.50406    0.82246   1.00
C4       0.74983    0.52127    0.74940   1.00
C4       0.75017    0.47873    0.75060   1.00
C3b      0.72528    0.45899    0.77678   1.00
C5       0.69809    0.48063    0.80379   1.00
H2       0.67747    0.49871    0.78662   1.00
H2       0.68071    0.46051    0.82230   1.00
H2       0.71505    0.50005    0.82336   1.00
C3b      0.77539    0.45796    0.72555   1.00
C5       0.80224    0.47848    0.69735   1.00
H2       0.82256    0.49783    0.71348   1.00
H2       0.81995    0.45765    0.67999   1.00
H2       0.78498    0.49650    0.67674   1.00
C3a      0.72588    0.41845    0.77763   1.00
H1       0.70686    0.40300    0.79765   1.00
C3a      0.77545    0.41743    0.72697   1.00
H1       0.79472    0.40119    0.70785   1.00
C2       0.75083    0.39757    0.75287   1.00
C2       0.74713    0.74917    0.60243   1.00
C3a      0.72293    0.72400    0.58116   1.00
H1       0.70335    0.70430    0.59631   1.00
C3a      0.77247    0.77467    0.58296   1.00
H1       0.79116    0.79412    0.59949   1.00
C3b      0.72379    0.72405    0.54062   1.00
C5       0.69739    0.69661    0.51856   1.00
H2       0.71502    0.67666    0.50016   1.00
H2       0.67927    0.67850    0.53839   1.00
H2       0.67744    0.71342    0.49940   1.00
C3b      0.77388    0.77528    0.54244   1.00
C5       0.80147    0.80306    0.52233   1.00
H2       0.78489    0.82331    0.50330   1.00
H2       0.81843    0.82084    0.54345   1.00
H2       0.82246    0.78655    0.50406   1.00
C4       0.74940    0.74983    0.52127   1.00
C4       0.75060    0.75017    0.47873   1.00
C3b      0.77678    0.72528    0.45899   1.00
C5       0.80379    0.69809    0.48063   1.00
H2       0.78662    0.67747    0.49871   1.00
H2       0.82230    0.68071    0.46051   1.00
H2       0.82336    0.71505    0.50005   1.00
C3b      0.72555    0.77539    0.45796   1.00
C5       0.69735    0.80224    0.47848   1.00
H2       0.71348    0.82256    0.49783   1.00
H2       0.67999    0.81995    0.45765   1.00
H2       0.67674    0.78498    0.49650   1.00
C3a      0.77763    0.72588    0.41845   1.00
H1       0.79765    0.70686    0.40300   1.00
C3a      0.72697    0.77545    0.41743   1.00
H1       0.70785    0.79472    0.40119   1.00
C2       0.75287    0.75083    0.39757   1.00
C2       0.24713    0.25083    0.89757   1.00
C3a      0.22293    0.27600    0.91884   1.00
H1       0.20335    0.29570    0.90369   1.00
C3a      0.27247    0.22533    0.91704   1.00
H1       0.29116    0.20588    0.90051   1.00
C3b      0.22379    0.27595    0.95938   1.00
C5       0.19739    0.30339    0.98144   1.00
H2       0.21502    0.32334    0.99984   1.00
H2       0.17927    0.32150    0.96161   1.00
H2       0.17744    0.28658    1.00060   1.00
C3b      0.27388    0.22472    0.95756   1.00
C5       0.30147    0.19694    0.97767   1.00
H2       0.28489    0.17669    0.99670   1.00
H2       0.31843    0.17916    0.95655   1.00
H2       0.32246    0.21345    0.99594   1.00
C4       0.24940    0.25017    0.97873   1.00
C4       0.25060    0.24983    1.02127   1.00
C3b      0.27678    0.27472    1.04101   1.00
C5       0.30379    0.30191    1.01937   1.00
H2       0.28662    0.32253    1.00129   1.00
H2       0.32230    0.31929    1.03949   1.00
H2       0.32336    0.28495    0.99995   1.00
C3b      0.22555    0.22461    1.04204   1.00
C5       0.19735    0.19776    1.02152   1.00
H2       0.21348    0.17744    1.00217   1.00
H2       0.17999    0.18005    1.04235   1.00
H2       0.17674    0.21502    1.00350   1.00
C3a      0.27763    0.27412    1.08155   1.00
H1       0.29765    0.29314    1.09700   1.00
C3a      0.22697    0.22455    1.08257   1.00
H1       0.20785    0.20528    1.09881   1.00
C2       0.25287    0.24917    1.10243   1.00
C2       0.25083    0.39757    0.74713   1.00
C3a      0.27600    0.41884    0.72293   1.00
H1       0.29570    0.40369    0.70335   1.00
C3a      0.22533    0.41704    0.77247   1.00
H1       0.20588    0.40051    0.79116   1.00
C3b      0.27595    0.45938    0.72379   1.00
C5       0.30339    0.48144    0.69739   1.00
H2       0.32334    0.49984    0.71502   1.00
H2       0.32150    0.46161    0.67927   1.00
H2       0.28658    0.50060    0.67744   1.00
C3b      0.22472    0.45756    0.77388   1.00
C5       0.19694    0.47767    0.80147   1.00
H2       0.17669    0.49670    0.78489   1.00
H2       0.17916    0.45655    0.81843   1.00
H2       0.21345    0.49594    0.82246   1.00
C4       0.25017    0.47873    0.74940   1.00
C4       0.24983    0.52127    0.75060   1.00
C3b      0.27472    0.54101    0.77678   1.00
C5       0.30191    0.51937    0.80379   1.00
H2       0.32253    0.50129    0.78662   1.00
H2       0.31929    0.53949    0.82230   1.00
H2       0.28495    0.49995    0.82336   1.00
C3b      0.22461    0.54204    0.72555   1.00
C5       0.19776    0.52152    0.69735   1.00
H2       0.17744    0.50217    0.71348   1.00
H2       0.18005    0.54235    0.67999   1.00
H2       0.21502    0.50350    0.67674   1.00
C3a      0.27412    0.58155    0.77763   1.00
H1       0.29314    0.59700    0.79765   1.00
C3a      0.22455    0.58257    0.72697   1.00
H1       0.20528    0.59881    0.70785   1.00
C2       0.24917    0.60243    0.75287   1.00
C2       0.10243    0.24713    0.74917   1.00
C3a      0.08116    0.22293    0.72400   1.00
H1       0.09631    0.20335    0.70430   1.00
C3a      0.08296    0.27247    0.77467   1.00
H1       0.09949    0.29116    0.79412   1.00
C3b      0.04062    0.22379    0.72405   1.00
C5       0.01856    0.19739    0.69661   1.00
H2       0.00016    0.21502    0.67666   1.00
H2       0.03839    0.17927    0.67850   1.00
H2       -0.00060   0.17744    0.71342   1.00
C3b      0.04244    0.27388    0.77528   1.00
C5       0.02233    0.30147    0.80306   1.00
H2       0.00330    0.28489    0.82331   1.00
H2       0.04345    0.31843    0.82084   1.00
H2       0.00406    0.32246    0.78655   1.00
C4       0.02127    0.24940    0.74983   1.00
C4       -0.02127   0.25060    0.75017   1.00
C3b      -0.04101   0.27678    0.72528   1.00
C5       -0.01937   0.30379    0.69809   1.00
H2       -0.00129   0.28662    0.67747   1.00
H2       -0.03949   0.32230    0.68071   1.00
H2       0.00005    0.32336    0.71505   1.00
C3b      -0.04204   0.22555    0.77539   1.00
C5       -0.02152   0.19735    0.80224   1.00
H2       -0.00217   0.21348    0.82256   1.00
H2       -0.04235   0.17999    0.81995   1.00
H2       -0.00350   0.17674    0.78498   1.00
C3a      -0.08155   0.27763    0.72588   1.00
H1       -0.09700   0.29765    0.70686   1.00
C3a      -0.08257   0.22697    0.77545   1.00
H1       -0.09881   0.20785    0.79472   1.00
C2       -0.10243   0.25287    0.75083   1.00
C2       0.39757    0.24713    0.75083   1.00
C3a      0.41884    0.22293    0.77600   1.00
H1       0.40369    0.20335    0.79570   1.00
C3a      0.41704    0.27247    0.72533   1.00
H1       0.40051    0.29116    0.70588   1.00
C3b      0.45938    0.22379    0.77595   1.00
C5       0.48144    0.19739    0.80339   1.00
H2       0.49984    0.21502    0.82334   1.00
H2       0.46161    0.17927    0.82150   1.00
H2       0.50060    0.17744    0.78658   1.00
C3b      0.45756    0.27388    0.72472   1.00
C5       0.47767    0.30147    0.69694   1.00
H2       0.49670    0.28489    0.67669   1.00
H2       0.45655    0.31843    0.67916   1.00
H2       0.49594    0.32246    0.71345   1.00
C4       0.47873    0.24940    0.75017   1.00
C4       0.52127    0.25060    0.74983   1.00
C3b      0.54101    0.27678    0.77472   1.00
C5       0.51937    0.30379    0.80191   1.00
H2       0.50129    0.28662    0.82253   1.00
H2       0.53949    0.32230    0.81929   1.00
H2       0.49995    0.32336    0.78495   1.00
C3b      0.54204    0.22555    0.72461   1.00
C5       0.52152    0.19735    0.69776   1.00
H2       0.50217    0.21348    0.67744   1.00
H2       0.54235    0.17999    0.68005   1.00
H2       0.50350    0.17674    0.71502   1.00
C3a      0.58155    0.27763    0.77412   1.00
H1       0.59700    0.29765    0.79314   1.00
C3a      0.58257    0.22697    0.72455   1.00
H1       0.59881    0.20785    0.70528   1.00
C2       0.60243    0.25287    0.74917   1.00
C2       0.24917    0.10243    0.74713   1.00
C3a      0.22400    0.08116    0.72293   1.00
H1       0.20430    0.09631    0.70335   1.00
C3a      0.27467    0.08296    0.77247   1.00
H1       0.29412    0.09949    0.79116   1.00
C3b      0.22405    0.04062    0.72379   1.00
C5       0.19661    0.01856    0.69739   1.00
H2       0.17666    0.00016    0.71502   1.00
H2       0.17850    0.03839    0.67927   1.00
H2       0.21342    -0.00060   0.67744   1.00
C3b      0.27528    0.04244    0.77388   1.00
C5       0.30306    0.02233    0.80147   1.00
H2       0.32331    0.00330    0.78489   1.00
H2       0.32084    0.04345    0.81843   1.00
H2       0.28655    0.00406    0.82246   1.00
C4       0.24983    0.02127    0.74940   1.00
C4       0.25017    -0.02127   0.75060   1.00
C3b      0.22528    -0.04101   0.77678   1.00
C5       0.19809    -0.01937   0.80379   1.00
H2       0.17747    -0.00129   0.78662   1.00
H2       0.18071    -0.03949   0.82230   1.00
H2       0.21505    0.00005    0.82336   1.00
C3b      0.27539    -0.04204   0.72555   1.00
C5       0.30224    -0.02152   0.69735   1.00
H2       0.32256    -0.00217   0.71348   1.00
H2       0.31995    -0.04235   0.67999   1.00
H2       0.28498    -0.00350   0.67674   1.00
C3a      0.22588    -0.08155   0.77763   1.00
H1       0.20686    -0.09700   0.79765   1.00
C3a      0.27545    -0.08257   0.72697   1.00
H1       0.29472    -0.09881   0.70785   1.00
C2       0.25083    -0.10243   0.75287   1.00
C2       0.24713    0.24917    0.60243   1.00
C3a      0.22293    0.22400    0.58116   1.00
H1       0.20335    0.20430    0.59631   1.00
C3a      0.27247    0.27467    0.58296   1.00
H1       0.29116    0.29412    0.59949   1.00
C3b      0.22379    0.22405    0.54062   1.00
C5       0.19739    0.19661    0.51856   1.00
H2       0.21502    0.17666    0.50016   1.00
H2       0.17927    0.17850    0.53839   1.00
H2       0.17744    0.21342    0.49940   1.00
C3b      0.27388    0.27528    0.54244   1.00
C5       0.30147    0.30306    0.52233   1.00
H2       0.28489    0.32331    0.50330   1.00
H2       0.31843    0.32084    0.54345   1.00
H2       0.32246    0.28655    0.50406   1.00
C4       0.24940    0.24983    0.52127   1.00
C4       0.25060    0.25017    0.47873   1.00
C3b      0.27678    0.22528    0.45899   1.00
C5       0.30379    0.19809    0.48063   1.00
H2       0.28662    0.17747    0.49871   1.00
H2       0.32230    0.18071    0.46051   1.00
H2       0.32336    0.21505    0.50005   1.00
C3b      0.22555    0.27539    0.45796   1.00
C5       0.19735    0.30224    0.47848   1.00
H2       0.21348    0.32256    0.49783   1.00
H2       0.17999    0.31995    0.45765   1.00
H2       0.17674    0.28498    0.49650   1.00
C3a      0.27763    0.22588    0.41845   1.00
H1       0.29765    0.20686    0.40300   1.00
C3a      0.22697    0.27545    0.41743   1.00
H1       0.20785    0.29472    0.40119   1.00
C2       0.25287    0.25083    0.39757   1.00
C2       0.24713    0.75083    0.39757   1.00
C3a      0.22293    0.77600    0.41884   1.00
H1       0.20335    0.79570    0.40369   1.00
C3a      0.27247    0.72533    0.41704   1.00
H1       0.29116    0.70588    0.40051   1.00
C3b      0.22379    0.77595    0.45938   1.00
C5       0.19739    0.80339    0.48144   1.00
H2       0.21502    0.82334    0.49984   1.00
H2       0.17927    0.82150    0.46161   1.00
H2       0.17744    0.78658    0.50060   1.00
C3b      0.27388    0.72472    0.45756   1.00
C5       0.30147    0.69694    0.47767   1.00
H2       0.28489    0.67669    0.49670   1.00
H2       0.31843    0.67916    0.45655   1.00
H2       0.32246    0.71345    0.49594   1.00
C4       0.24940    0.75017    0.47873   1.00
C4       0.25060    0.74983    0.52127   1.00
C3b      0.27678    0.77472    0.54101   1.00
C5       0.30379    0.80191    0.51937   1.00
H2       0.28662    0.82253    0.50129   1.00
H2       0.32230    0.81929    0.53949   1.00
H2       0.32336    0.78495    0.49995   1.00
C3b      0.22555    0.72461    0.54204   1.00
C5       0.19735    0.69776    0.52152   1.00
H2       0.21348    0.67744    0.50217   1.00
H2       0.17999    0.68005    0.54235   1.00
H2       0.17674    0.71502    0.50350   1.00
C3a      0.27763    0.77412    0.58155   1.00
H1       0.29765    0.79314    0.59700   1.00
C3a      0.22697    0.72455    0.58257   1.00
H1       0.20785    0.70528    0.59881   1.00
C2       0.25287    0.74917    0.60243   1.00
C2       0.25083    0.89757    0.24713   1.00
C3a      0.27600    0.91884    0.22293   1.00
H1       0.29570    0.90369    0.20335   1.00
C3a      0.22533    0.91704    0.27247   1.00
H1       0.20588    0.90051    0.29116   1.00
C3b      0.27595    0.95938    0.22379   1.00
C5       0.30339    0.98144    0.19739   1.00
H2       0.32334    0.99984    0.21502   1.00
H2       0.32150    0.96161    0.17927   1.00
H2       0.28658    1.00060    0.17744   1.00
C3b      0.22472    0.95756    0.27388   1.00
C5       0.19694    0.97767    0.30147   1.00
H2       0.17669    0.99670    0.28489   1.00
H2       0.17916    0.95655    0.31843   1.00
H2       0.21345    0.99594    0.32246   1.00
C4       0.25017    0.97873    0.24940   1.00
C4       0.24983    1.02127    0.25060   1.00
C3b      0.27472    1.04101    0.27678   1.00
C5       0.30191    1.01937    0.30379   1.00
H2       0.32253    1.00129    0.28662   1.00
H2       0.31929    1.03949    0.32230   1.00
H2       0.28495    0.99995    0.32336   1.00
C3b      0.22461    1.04204    0.22555   1.00
C5       0.19776    1.02152    0.19735   1.00
H2       0.17744    1.00217    0.21348   1.00
H2       0.18005    1.04235    0.17999   1.00
H2       0.21502    1.00350    0.17674   1.00
C3a      0.27412    1.08155    0.27763   1.00
H1       0.29314    1.09700    0.29765   1.00
C3a      0.22455    1.08257    0.22697   1.00
H1       0.20528    1.09881    0.20785   1.00
C2       0.24917    1.10243    0.25287   1.00
C2       0.10243    0.74713    0.24917   1.00
C3a      0.08116    0.72293    0.22400   1.00
H1       0.09631    0.70335    0.20430   1.00
C3a      0.08296    0.77247    0.27467   1.00
H1       0.09949    0.79116    0.29412   1.00
C3b      0.04062    0.72379    0.22405   1.00
C5       0.01856    0.69739    0.19661   1.00
H2       0.00016    0.71502    0.17666   1.00
H2       0.03839    0.67927    0.17850   1.00
H2       -0.00060   0.67744    0.21342   1.00
C3b      0.04244    0.77388    0.27528   1.00
C5       0.02233    0.80147    0.30306   1.00
H2       0.00330    0.78489    0.32331   1.00
H2       0.04345    0.81843    0.32084   1.00
H2       0.00406    0.82246    0.28655   1.00
C4       0.02127    0.74940    0.24983   1.00
C4       -0.02127   0.75060    0.25017   1.00
C3b      -0.04101   0.77678    0.22528   1.00
C5       -0.01937   0.80379    0.19809   1.00
H2       -0.00129   0.78662    0.17747   1.00
H2       -0.03949   0.82230    0.18071   1.00
H2       0.00005    0.82336    0.21505   1.00
C3b      -0.04204   0.72555    0.27539   1.00
C5       -0.02152   0.69735    0.30224   1.00
H2       -0.00217   0.71348    0.32256   1.00
H2       -0.04235   0.67999    0.31995   1.00
H2       -0.00350   0.67674    0.28498   1.00
C3a      -0.08155   0.77763    0.22588   1.00
H1       -0.09700   0.79765    0.20686   1.00
C3a      -0.08257   0.72697    0.27545   1.00
H1       -0.09881   0.70785    0.29472   1.00
C2       -0.10243   0.75287    0.25083   1.00
C2       0.39757    0.74713    0.25083   1.00
C3a      0.41884    0.72293    0.27600   1.00
H1       0.40369    0.70335    0.29570   1.00
C3a      0.41704    0.77247    0.22533   1.00
H1       0.40051    0.79116    0.20588   1.00
C3b      0.45938    0.72379    0.27595   1.00
C5       0.48144    0.69739    0.30339   1.00
H2       0.49984    0.71502    0.32334   1.00
H2       0.46161    0.67927    0.32150   1.00
H2       0.50060    0.67744    0.28658   1.00
C3b      0.45756    0.77388    0.22472   1.00
C5       0.47767    0.80147    0.19694   1.00
H2       0.49670    0.78489    0.17669   1.00
H2       0.45655    0.81843    0.17916   1.00
H2       0.49594    0.82246    0.21345   1.00
C4       0.47873    0.74940    0.25017   1.00
C4       0.52127    0.75060    0.24983   1.00
C3b      0.54101    0.77678    0.27472   1.00
C5       0.51937    0.80379    0.30191   1.00
H2       0.50129    0.78662    0.32253   1.00
H2       0.53949    0.82230    0.31929   1.00
H2       0.49995    0.82336    0.28495   1.00
C3b      0.54204    0.72555    0.22461   1.00
C5       0.52152    0.69735    0.19776   1.00
H2       0.50217    0.71348    0.17744   1.00
H2       0.54235    0.67999    0.18005   1.00
H2       0.50350    0.67674    0.21502   1.00
C3a      0.58155    0.77763    0.27412   1.00
H1       0.59700    0.79765    0.29314   1.00
C3a      0.58257    0.72697    0.22455   1.00
H1       0.59881    0.70785    0.20528   1.00
C2       0.60243    0.75287    0.24917   1.00
C2       0.24917    0.60243    0.24713   1.00
C3a      0.22400    0.58116    0.22293   1.00
H1       0.20430    0.59631    0.20335   1.00
C3a      0.27467    0.58296    0.27247   1.00
H1       0.29412    0.59949    0.29116   1.00
C3b      0.22405    0.54062    0.22379   1.00
C5       0.19661    0.51856    0.19739   1.00
H2       0.17666    0.50016    0.21502   1.00
H2       0.17850    0.53839    0.17927   1.00
H2       0.21342    0.49940    0.17744   1.00
C3b      0.27528    0.54244    0.27388   1.00
C5       0.30306    0.52233    0.30147   1.00
H2       0.32331    0.50330    0.28489   1.00
H2       0.32084    0.54345    0.31843   1.00
H2       0.28655    0.50406    0.32246   1.00
C4       0.24983    0.52127    0.24940   1.00
C4       0.25017    0.47873    0.25060   1.00
C3b      0.22528    0.45899    0.27678   1.00
C5       0.19809    0.48063    0.30379   1.00
H2       0.17747    0.49871    0.28662   1.00
H2       0.18071    0.46051    0.32230   1.00
H2       0.21505    0.50005    0.32336   1.00
C3b      0.27539    0.45796    0.22555   1.00
C5       0.30224    0.47848    0.19735   1.00
H2       0.32256    0.49783    0.21348   1.00
H2       0.31995    0.45765    0.17999   1.00
H2       0.28498    0.49650    0.17674   1.00
C3a      0.22588    0.41845    0.27763   1.00
H1       0.20686    0.40300    0.29765   1.00
C3a      0.27545    0.41743    0.22697   1.00
H1       0.29472    0.40119    0.20785   1.00
C2       0.25083    0.39757    0.25287   1.00
C2       0.24713    0.74917    0.10243   1.00
C3a      0.22293    0.72400    0.08116   1.00
H1       0.20335    0.70430    0.09631   1.00
C3a      0.27247    0.77467    0.08296   1.00
H1       0.29116    0.79412    0.09949   1.00
C3b      0.22379    0.72405    0.04062   1.00
C5       0.19739    0.69661    0.01856   1.00
H2       0.21502    0.67666    0.00016   1.00
H2       0.17927    0.67850    0.03839   1.00
H2       0.17744    0.71342    -0.00060   1.00
C3b      0.27388    0.77528    0.04244   1.00
C5       0.30147    0.80306    0.02233   1.00
H2       0.28489    0.82331    0.00330   1.00
H2       0.31843    0.82084    0.04345   1.00
H2       0.32246    0.78655    0.00406   1.00
C4       0.24940    0.74983    0.02127   1.00
C4       0.25060    0.75017    -0.02127   1.00
C3b      0.27678    0.72528    -0.04101   1.00
C5       0.30379    0.69809    -0.01937   1.00
H2       0.28662    0.67747    -0.00129   1.00
H2       0.32230    0.68071    -0.03949   1.00
H2       0.32336    0.71505    0.00005   1.00
C3b      0.22555    0.77539    -0.04204   1.00
C5       0.19735    0.80224    -0.02152   1.00
H2       0.21348    0.82256    -0.00217   1.00
H2       0.17999    0.81995    -0.04235   1.00
H2       0.17674    0.78498    -0.00350   1.00
C3a      0.27763    0.72588    -0.08155   1.00
H1       0.29765    0.70686    -0.09700   1.00
C3a      0.22697    0.77545    -0.08257   1.00
H1       0.20785    0.79472    -0.09881   1.00
C2       0.25287    0.75083    -0.10243   1.00
C2       0.74713    0.25083    0.39757   1.00
C3a      0.72293    0.27600    0.41884   1.00
H1       0.70335    0.29570    0.40369   1.00
C3a      0.77247    0.22533    0.41704   1.00
H1       0.79116    0.20588    0.40051   1.00
C3b      0.72379    0.27595    0.45938   1.00
C5       0.69739    0.30339    0.48144   1.00
H2       0.71502    0.32334    0.49984   1.00
H2       0.67927    0.32150    0.46161   1.00
H2       0.67744    0.28658    0.50060   1.00
C3b      0.77388    0.22472    0.45756   1.00
C5       0.80147    0.19694    0.47767   1.00
H2       0.78489    0.17669    0.49670   1.00
H2       0.81843    0.17916    0.45655   1.00
H2       0.82246    0.21345    0.49594   1.00
C4       0.74940    0.25017    0.47873   1.00
C4       0.75060    0.24983    0.52127   1.00
C3b      0.77678    0.27472    0.54101   1.00
C5       0.80379    0.30191    0.51937   1.00
H2       0.78662    0.32253    0.50129   1.00
H2       0.82230    0.31929    0.53949   1.00
H2       0.82336    0.28495    0.49995   1.00
C3b      0.72555    0.22461    0.54204   1.00
C5       0.69735    0.19776    0.52152   1.00
H2       0.71348    0.17744    0.50217   1.00
H2       0.67999    0.18005    0.54235   1.00
H2       0.67674    0.21502    0.50350   1.00
C3a      0.77763    0.27412    0.58155   1.00
H1       0.79765    0.29314    0.59700   1.00
C3a      0.72697    0.22455    0.58257   1.00
H1       0.70785    0.20528    0.59881   1.00
C2       0.75287    0.24917    0.60243   1.00
C2       0.75083    0.39757    0.24713   1.00
C3a      0.77600    0.41884    0.22293   1.00
H1       0.79570    0.40369    0.20335   1.00
C3a      0.72533    0.41704    0.27247   1.00
H1       0.70588    0.40051    0.29116   1.00
C3b      0.77595    0.45938    0.22379   1.00
C5       0.80339    0.48144    0.19739   1.00
H2       0.82334    0.49984    0.21502   1.00
H2       0.82150    0.46161    0.17927   1.00
H2       0.78658    0.50060    0.17744   1.00
C3b      0.72472    0.45756    0.27388   1.00
C5       0.69694    0.47767    0.30147   1.00
H2       0.67669    0.49670    0.28489   1.00
H2       0.67916    0.45655    0.31843   1.00
H2       0.71345    0.49594    0.32246   1.00
C4       0.75017    0.47873    0.24940   1.00
C4       0.74983    0.52127    0.25060   1.00
C3b      0.77472    0.54101    0.27678   1.00
C5       0.80191    0.51937    0.30379   1.00
H2       0.82253    0.50129    0.28662   1.00
H2       0.81929    0.53949    0.32230   1.00
H2       0.78495    0.49995    0.32336   1.00
C3b      0.72461    0.54204    0.22555   1.00
C5       0.69776    0.52152    0.19735   1.00
H2       0.67744    0.50217    0.21348   1.00
H2       0.68005    0.54235    0.17999   1.00
H2       0.71502    0.50350    0.17674   1.00
C3a      0.77412    0.58155    0.27763   1.00
H1       0.79314    0.59700    0.29765   1.00
C3a      0.72455    0.58257    0.22697   1.00
H1       0.70528    0.59881    0.20785   1.00
C2       0.74917    0.60243    0.25287   1.00
C2       0.60243    0.24713    0.24917   1.00
C3a      0.58116    0.22293    0.22400   1.00
H1       0.59631    0.20335    0.20430   1.00
C3a      0.58296    0.27247    0.27467   1.00
H1       0.59949    0.29116    0.29412   1.00
C3b      0.54062    0.22379    0.22405   1.00
C5       0.51856    0.19739    0.19661   1.00
H2       0.50016    0.21502    0.17666   1.00
H2       0.53839    0.17927    0.17850   1.00
H2       0.49940    0.17744    0.21342   1.00
C3b      0.54244    0.27388    0.27528   1.00
C5       0.52233    0.30147    0.30306   1.00
H2       0.50330    0.28489    0.32331   1.00
H2       0.54345    0.31843    0.32084   1.00
H2       0.50406    0.32246    0.28655   1.00
C4       0.52127    0.24940    0.24983   1.00
C4       0.47873    0.25060    0.25017   1.00
C3b      0.45899    0.27678    0.22528   1.00
C5       0.48063    0.30379    0.19809   1.00
H2       0.49871    0.28662    0.17747   1.00
H2       0.46051    0.32230    0.18071   1.00
H2       0.50005    0.32336    0.21505   1.00
C3b      0.45796    0.22555    0.27539   1.00
C5       0.47848    0.19735    0.30224   1.00
H2       0.49783    0.21348    0.32256   1.00
H2       0.45765    0.17999    0.31995   1.00
H2       0.49650    0.17674    0.28498   1.00
C3a      0.41845    0.27763    0.22588   1.00
H1       0.40300    0.29765    0.20686   1.00
C3a      0.41743    0.22697    0.27545   1.00
H1       0.40119    0.20785    0.29472   1.00
C2       0.39757    0.25287    0.25083   1.00
C2       0.89757    0.24713    0.25083   1.00
C3a      0.91884    0.22293    0.27600   1.00
H1       0.90369    0.20335    0.29570   1.00
C3a      0.91704    0.27247    0.22533   1.00
H1       0.90051    0.29116    0.20588   1.00
C3b      0.95938    0.22379    0.27595   1.00
C5       0.98144    0.19739    0.30339   1.00
H2       0.99984    0.21502    0.32334   1.00
H2       0.96161    0.17927    0.32150   1.00
H2       1.00060    0.17744    0.28658   1.00
C3b      0.95756    0.27388    0.22472   1.00
C5       0.97767    0.30147    0.19694   1.00
H2       0.99670    0.28489    0.17669   1.00
H2       0.95655    0.31843    0.17916   1.00
H2       0.99594    0.32246    0.21345   1.00
C4       0.97873    0.24940    0.25017   1.00
C4       1.02127    0.25060    0.24983   1.00
C3b      1.04101    0.27678    0.27472   1.00
C5       1.01937    0.30379    0.30191   1.00
H2       1.00129    0.28662    0.32253   1.00
H2       1.03949    0.32230    0.31929   1.00
H2       0.99995    0.32336    0.28495   1.00
C3b      1.04204    0.22555    0.22461   1.00
C5       1.02152    0.19735    0.19776   1.00
H2       1.00217    0.21348    0.17744   1.00
H2       1.04235    0.17999    0.18005   1.00
H2       1.00350    0.17674    0.21502   1.00
C3a      1.08155    0.27763    0.27412   1.00
H1       1.09700    0.29765    0.29314   1.00
C3a      1.08257    0.22697    0.22455   1.00
H1       1.09881    0.20785    0.20528   1.00
C2       1.10243    0.25287    0.24917   1.00
C2       0.74917    0.10243    0.24713   1.00
C3a      0.72400    0.08116    0.22293   1.00
H1       0.70430    0.09631    0.20335   1.00
C3a      0.77467    0.08296    0.27247   1.00
H1       0.79412    0.09949    0.29116   1.00
C3b      0.72405    0.04062    0.22379   1.00
C5       0.69661    0.01856    0.19739   1.00
H2       0.67666    0.00016    0.21502   1.00
H2       0.67850    0.03839    0.17927   1.00
H2       0.71342    -0.00060   0.17744   1.00
C3b      0.77528    0.04244    0.27388   1.00
C5       0.80306    0.02233    0.30147   1.00
H2       0.82331    0.00330    0.28489   1.00
H2       0.82084    0.04345    0.31843   1.00
H2       0.78655    0.00406    0.32246   1.00
C4       0.74983    0.02127    0.24940   1.00
C4       0.75017    -0.02127   0.25060   1.00
C3b      0.72528    -0.04101   0.27678   1.00
C5       0.69809    -0.01937   0.30379   1.00
H2       0.67747    -0.00129   0.28662   1.00
H2       0.68071    -0.03949   0.32230   1.00
H2       0.71505    0.00005    0.32336   1.00
C3b      0.77539    -0.04204   0.22555   1.00
C5       0.80224    -0.02152   0.19735   1.00
H2       0.82256    -0.00217   0.21348   1.00
H2       0.81995    -0.04235   0.17999   1.00
H2       0.78498    -0.00350   0.17674   1.00
C3a      0.72588    -0.08155   0.27763   1.00
H1       0.70686    -0.09700   0.29765   1.00
C3a      0.77545    -0.08257   0.22697   1.00
H1       0.79472    -0.09881   0.20785   1.00
C2       0.75083    -0.10243   0.25287   1.00
C2       0.74713    0.24917    0.10243   1.00
C3a      0.72293    0.22400    0.08116   1.00
H1       0.70335    0.20430    0.09631   1.00
C3a      0.77247    0.27467    0.08296   1.00
H1       0.79116    0.29412    0.09949   1.00
C3b      0.72379    0.22405    0.04062   1.00
C5       0.69739    0.19661    0.01856   1.00
H2       0.71502    0.17666    0.00016   1.00
H2       0.67927    0.17850    0.03839   1.00
H2       0.67744    0.21342    -0.00060   1.00
C3b      0.77388    0.27528    0.04244   1.00
C5       0.80147    0.30306    0.02233   1.00
H2       0.78489    0.32331    0.00330   1.00
H2       0.81843    0.32084    0.04345   1.00
H2       0.82246    0.28655    0.00406   1.00
C4       0.74940    0.24983    0.02127   1.00
C4       0.75060    0.25017    -0.02127   1.00
C3b      0.77678    0.22528    -0.04101   1.00
C5       0.80379    0.19809    -0.01937   1.00
H2       0.78662    0.17747    -0.00129   1.00
H2       0.82230    0.18071    -0.03949   1.00
H2       0.82336    0.21505    0.00005   1.00
C3b      0.72555    0.27539    -0.04204   1.00
C5       0.69735    0.30224    -0.02152   1.00
H2       0.71348    0.32256    -0.00217   1.00
H2       0.67999    0.31995    -0.04235   1.00
H2       0.67674    0.28498    -0.00350   1.00
C3a      0.77763    0.22588    -0.08155   1.00
H1       0.79765    0.20686    -0.09700   1.00
C3a      0.72697    0.27545    -0.08257   1.00
H1       0.70785    0.29472    -0.09881   1.00
C2       0.75287    0.25083    -0.10243   1.00
C2       0.91213    0.91583    1.06257   1.00
C3a      0.88793    0.94100    1.08384   1.00
H1       0.86835    0.96070    1.06869   1.00
C3a      0.93747    0.89033    1.08204   1.00
H1       0.95616    0.87088    1.06551   1.00
C3b      0.88879    0.94095    1.12438   1.00
C5       0.86239    0.96839    1.14644   1.00
H2       0.88002    0.98834    1.16484   1.00
H2       0.84427    0.98650    1.12661   1.00
H2       0.84244    0.95158    1.16560   1.00
C3b      0.93888    0.88972    1.12256   1.00
C5       0.96647    0.86194    1.14267   1.00
H2       0.94989    0.84169    1.16170   1.00
H2       0.98343    0.84416    1.12155   1.00
H2       0.98746    0.87845    1.16094   1.00
C4       0.91440    0.91517    1.14373   1.00
C4       0.91560    0.91483    1.18627   1.00
C3b      0.94178    0.93972    1.20601   1.00
C5       0.96879    0.96691    1.18437   1.00
H2       0.95162    0.98753    1.16629   1.00
H2       0.98730    0.98429    1.20449   1.00
H2       0.98836    0.94995    1.16495   1.00
C3b      0.89055    0.88961    1.20704   1.00
C5       0.86235    0.86276    1.18652   1.00
H2       0.87848    0.84244    1.16717   1.00
H2       0.84499    0.84505    1.20735   1.00
H2       0.84174    0.88002    1.16850   1.00
C3a      0.94263    0.93912    1.24655   1.00
H1       0.96265    0.95814    1.26200   1.00
C3a      0.89197    0.88955    1.24757   1.00
H1       0.87285    0.87028    1.26381   1.00
C2       0.91787    0.91417    1.26743   1.00
C2       0.91583    1.06257    0.91213   1.00
C3a      0.94100    1.08384    0.88793   1.00
H1       0.96070    1.06869    0.86835   1.00
C3a      0.89033    1.08204    0.93747   1.00
H1       0.87088    1.06551    0.95616   1.00
C3b      0.94095    1.12438    0.88879   1.00
C5       0.96839    1.14644    0.86239   1.00
H2       0.98834    1.16484    0.88002   1.00
H2       0.98650    1.12661    0.84427   1.00
H2       0.95158    1.16560    0.84244   1.00
C3b      0.88972    1.12256    0.93888   1.00
C5       0.86194    1.14267    0.96647   1.00
H2       0.84169    1.16170    0.94989   1.00
H2       0.84416    1.12155    0.98343   1.00
H2       0.87845    1.16094    0.98746   1.00
C4       0.91517    1.14373    0.91440   1.00
C4       0.91483    1.18627    0.91560   1.00
C3b      0.93972    1.20601    0.94178   1.00
C5       0.96691    1.18437    0.96879   1.00
H2       0.98753    1.16629    0.95162   1.00
H2       0.98429    1.20449    0.98730   1.00
H2       0.94995    1.16495    0.98836   1.00
C3b      0.88961    1.20704    0.89055   1.00
C5       0.86276    1.18652    0.86235   1.00
H2       0.84244    1.16717    0.87848   1.00
H2       0.84505    1.20735    0.84499   1.00
H2       0.88002    1.16850    0.84174   1.00
C3a      0.93912    1.24655    0.94263   1.00
H1       0.95814    1.26200    0.96265   1.00
C3a      0.88955    1.24757    0.89197   1.00
H1       0.87028    1.26381    0.87285   1.00
C2       0.91417    1.26743    0.91787   1.00
C2       0.76743    0.91213    0.91417   1.00
C3a      0.74616    0.88793    0.88900   1.00
H1       0.76131    0.86835    0.86930   1.00
C3a      0.74796    0.93747    0.93967   1.00
H1       0.76449    0.95616    0.95912   1.00
C3b      0.70562    0.88879    0.88905   1.00
C5       0.68356    0.86239    0.86161   1.00
H2       0.66516    0.88002    0.84166   1.00
H2       0.70339    0.84427    0.84350   1.00
H2       0.66440    0.84244    0.87842   1.00
C3b      0.70744    0.93888    0.94028   1.00
C5       0.68733    0.96647    0.96806   1.00
H2       0.66830    0.94989    0.98831   1.00
H2       0.70845    0.98343    0.98584   1.00
H2       0.66906    0.98746    0.95155   1.00
C4       0.68627    0.91440    0.91483   1.00
C4       0.64373    0.91560    0.91517   1.00
C3b      0.62399    0.94178    0.89028   1.00
C5       0.64563    0.96879    0.86309   1.00
H2       0.66371    0.95162    0.84247   1.00
H2       0.62551    0.98730    0.84571   1.00
H2       0.66505    0.98836    0.88005   1.00
C3b      0.62296    0.89055    0.94039   1.00
C5       0.64348    0.86235    0.96724   1.00
H2       0.66283    0.87848    0.98756   1.00
H2       0.62265    0.84499    0.98495   1.00
H2       0.66150    0.84174    0.94998   1.00
C3a      0.58345    0.94263    0.89088   1.00
H1       0.56800    0.96265    0.87186   1.00
C3a      0.58243    0.89197    0.94045   1.00
H1       0.56619    0.87285    0.95972   1.00
C2       0.56257    0.91787    0.91583   1.00
C2       1.06257    0.91213    0.91583   1.00
C3a      1.08384    0.88793    0.94100   1.00
H1       1.06869    0.86835    0.96070   1.00
C3a      1.08204    0.93747    0.89033   1.00
H1       1.06551    0.95616    0.87088   1.00
C3b      1.12438    0.88879    0.94095   1.00
C5       1.14644    0.86239    0.96839   1.00
H2       1.16484    0.88002    0.98834   1.00
H2       1.12661    0.84427    0.98650   1.00
H2       1.16560    0.84244    0.95158   1.00
C3b      1.12256    0.93888    0.88972   1.00
C5       1.14267    0.96647    0.86194   1.00
H2       1.16170    0.94989    0.84169   1.00
H2       1.12155    0.98343    0.84416   1.00
H2       1.16094    0.98746    0.87845   1.00
C4       1.14373    0.91440    0.91517   1.00
C4       1.18627    0.91560    0.91483   1.00
C3b      1.20601    0.94178    0.93972   1.00
C5       1.18437    0.96879    0.96691   1.00
H2       1.16629    0.95162    0.98753   1.00
H2       1.20449    0.98730    0.98429   1.00
H2       1.16495    0.98836    0.94995   1.00
C3b      1.20704    0.89055    0.88961   1.00
C5       1.18652    0.86235    0.86276   1.00
H2       1.16717    0.87848    0.84244   1.00
H2       1.20735    0.84499    0.84505   1.00
H2       1.16850    0.84174    0.88002   1.00
C3a      1.24655    0.94263    0.93912   1.00
H1       1.26200    0.96265    0.95814   1.00
C3a      1.24757    0.89197    0.88955   1.00
H1       1.26381    0.87285    0.87028   1.00
C2       1.26743    0.91787    0.91417   1.00
C2       0.91417    0.76743    0.91213   1.00
C3a      0.88900    0.74616    0.88793   1.00
H1       0.86930    0.76131    0.86835   1.00
C3a      0.93967    0.74796    0.93747   1.00
H1       0.95912    0.76449    0.95616   1.00
C3b      0.88905    0.70562    0.88879   1.00
C5       0.86161    0.68356    0.86239   1.00
H2       0.84166    0.66516    0.88002   1.00
H2       0.84350    0.70339    0.84427   1.00
H2       0.87842    0.66440    0.84244   1.00
C3b      0.94028    0.70744    0.93888   1.00
C5       0.96806    0.68733    0.96647   1.00
H2       0.98831    0.66830    0.94989   1.00
H2       0.98584    0.70845    0.98343   1.00
H2       0.95155    0.66906    0.98746   1.00
C4       0.91483    0.68627    0.91440   1.00
C4       0.91517    0.64373    0.91560   1.00
C3b      0.89028    0.62399    0.94178   1.00
C5       0.86309    0.64563    0.96879   1.00
H2       0.84247    0.66371    0.95162   1.00
H2       0.84571    0.62551    0.98730   1.00
H2       0.88005    0.66505    0.98836   1.00
C3b      0.94039    0.62296    0.89055   1.00
C5       0.96724    0.64348    0.86235   1.00
H2       0.98756    0.66283    0.87848   1.00
H2       0.98495    0.62265    0.84499   1.00
H2       0.94998    0.66150    0.84174   1.00
C3a      0.89088    0.58345    0.94263   1.00
H1       0.87186    0.56800    0.96265   1.00
C3a      0.94045    0.58243    0.89197   1.00
H1       0.95972    0.56619    0.87285   1.00
C2       0.91583    0.56257    0.91787   1.00
C2       0.91213    0.91417    0.76743   1.00
C3a      0.88793    0.88900    0.74616   1.00
H1       0.86835    0.86930    0.76131   1.00
C3a      0.93747    0.93967    0.74796   1.00
H1       0.95616    0.95912    0.76449   1.00
C3b      0.88879    0.88905    0.70562   1.00
C5       0.86239    0.86161    0.68356   1.00
H2       0.88002    0.84166    0.66516   1.00
H2       0.84427    0.84350    0.70339   1.00
H2       0.84244    0.87842    0.66440   1.00
C3b      0.93888    0.94028    0.70744   1.00
C5       0.96647    0.96806    0.68733   1.00
H2       0.94989    0.98831    0.66830   1.00
H2       0.98343    0.98584    0.70845   1.00
H2       0.98746    0.95155    0.66906   1.00
C4       0.91440    0.91483    0.68627   1.00
C4       0.91560    0.91517    0.64373   1.00
C3b      0.94178    0.89028    0.62399   1.00
C5       0.96879    0.86309    0.64563   1.00
H2       0.95162    0.84247    0.66371   1.00
H2       0.98730    0.84571    0.62551   1.00
H2       0.98836    0.88005    0.66505   1.00
C3b      0.89055    0.94039    0.62296   1.00
C5       0.86235    0.96724    0.64348   1.00
H2       0.87848    0.98756    0.66283   1.00
H2       0.84499    0.98495    0.62265   1.00
H2       0.84174    0.94998    0.66150   1.00
C3a      0.94263    0.89088    0.58345   1.00
H1       0.96265    0.87186    0.56800   1.00
C3a      0.89197    0.94045    0.58243   1.00
H1       0.87285    0.95972    0.56619   1.00
C2       0.91787    0.91583    0.56257   1.00
C2       0.41213    0.41583    1.06257   1.00
C3a      0.38793    0.44100    1.08384   1.00
H1       0.36835    0.46070    1.06869   1.00
C3a      0.43747    0.39033    1.08204   1.00
H1       0.45616    0.37088    1.06551   1.00
C3b      0.38879    0.44095    1.12438   1.00
C5       0.36239    0.46839    1.14644   1.00
H2       0.38002    0.48834    1.16484   1.00
H2       0.34427    0.48650    1.12661   1.00
H2       0.34244    0.45158    1.16560   1.00
C3b      0.43888    0.38972    1.12256   1.00
C5       0.46647    0.36194    1.14267   1.00
H2       0.44989    0.34169    1.16170   1.00
H2       0.48343    0.34416    1.12155   1.00
H2       0.48746    0.37845    1.16094   1.00
C4       0.41440    0.41517    1.14373   1.00
C4       0.41560    0.41483    1.18627   1.00
C3b      0.44178    0.43972    1.20601   1.00
C5       0.46879    0.46691    1.18437   1.00
H2       0.45162    0.48753    1.16629   1.00
H2       0.48730    0.48429    1.20449   1.00
H2       0.48836    0.44995    1.16495   1.00
C3b      0.39055    0.38961    1.20704   1.00
C5       0.36235    0.36276    1.18652   1.00
H2       0.37848    0.34244    1.16717   1.00
H2       0.34499    0.34505    1.20735   1.00
H2       0.34174    0.38002    1.16850   1.00
C3a      0.44263    0.43912    1.24655   1.00
H1       0.46265    0.45814    1.26200   1.00
C3a      0.39197    0.38955    1.24757   1.00
H1       0.37285    0.37028    1.26381   1.00
C2       0.41787    0.41417    1.26743   1.00
C2       0.41583    0.56257    0.91213   1.00
C3a      0.44100    0.58384    0.88793   1.00
H1       0.46070    0.56869    0.86835   1.00
C3a      0.39033    0.58204    0.93747   1.00
H1       0.37088    0.56551    0.95616   1.00
C3b      0.44095    0.62438    0.88879   1.00
C5       0.46839    0.64644    0.86239   1.00
H2       0.48834    0.66484    0.88002   1.00
H2       0.48650    0.62661    0.84427   1.00
H2       0.45158    0.66560    0.84244   1.00
C3b      0.38972    0.62256    0.93888   1.00
C5       0.36194    0.64267    0.96647   1.00
H2       0.34169    0.66170    0.94989   1.00
H2       0.34416    0.62155    0.98343   1.00
H2       0.37845    0.66094    0.98746   1.00
C4       0.41517    0.64373    0.91440   1.00
C4       0.41483    0.68627    0.91560   1.00
C3b      0.43972    0.70601    0.94178   1.00
C5       0.46691    0.68437    0.96879   1.00
H2       0.48753    0.66629    0.95162   1.00
H2       0.48429    0.70449    0.98730   1.00
H2       0.44995    0.66495    0.98836   1.00
C3b      0.38961    0.70704    0.89055   1.00
C5       0.36276    0.68652    0.86235   1.00
H2       0.34244    0.66717    0.87848   1.00
H2       0.34505    0.70735    0.84499   1.00
H2       0.38002    0.66850    0.84174   1.00
C3a      0.43912    0.74655    0.94263   1.00
H1       0.45814    0.76200    0.96265   1.00
C3a      0.38955    0.74757    0.89197   1.00
H1       0.37028    0.76381    0.87285   1.00
C2       0.41417    0.76743    0.91787   1.00
C2       0.26743    0.41213    0.91417   1.00
C3a      0.24616    0.38793    0.88900   1.00
H1       0.26131    0.36835    0.86930   1.00
C3a      0.24796    0.43747    0.93967   1.00
H1       0.26449    0.45616    0.95912   1.00
C3b      0.20562    0.38879    0.88905   1.00
C5       0.18356    0.36239    0.86161   1.00
H2       0.16516    0.38002    0.84166   1.00
H2       0.20339    0.34427    0.84350   1.00
H2       0.16440    0.34244    0.87842   1.00
C3b      0.20744    0.43888    0.94028   1.00
C5       0.18733    0.46647    0.96806   1.00
H2       0.16830    0.44989    0.98831   1.00
H2       0.20845    0.48343    0.98584   1.00
H2       0.16906    0.48746    0.95155   1.00
C4       0.18627    0.41440    0.91483   1.00
C4       0.14373    0.41560    0.91517   1.00
C3b      0.12399    0.44178    0.89028   1.00
C5       0.14563    0.46879    0.86309   1.00
H2       0.16371    0.45162    0.84247   1.00
H2       0.12551    0.48730    0.84571   1.00
H2       0.16505    0.48836    0.88005   1.00
C3b      0.12296    0.39055    0.94039   1.00
C5       0.14348    0.36235    0.96724   1.00
H2       0.16283    0.37848    0.98756   1.00
H2       0.12265    0.34499    0.98495   1.00
H2       0.16150    0.34174    0.94998   1.00
C3a      0.08345    0.44263    0.89088   1.00
H1       0.06800    0.46265    0.87186   1.00
C3a      0.08243    0.39197    0.94045   1.00
H1       0.06619    0.37285    0.95972   1.00
C2       0.06257    0.41787    0.91583   1.00
C2       0.56257    0.41213    0.91583   1.00
C3a      0.58384    0.38793    0.94100   1.00
H1       0.56869    0.36835    0.96070   1.00
C3a      0.58204    0.43747    0.89033   1.00
H1       0.56551    0.45616    0.87088   1.00
C3b      0.62438    0.38879    0.94095   1.00
C5       0.64644    0.36239    0.96839   1.00
H2       0.66484    0.38002    0.98834   1.00
H2       0.62661    0.34427    0.98650   1.00
H2       0.66560    0.34244    0.95158   1.00
C3b      0.62256    0.43888    0.88972   1.00
C5       0.64267    0.46647    0.86194   1.00
H2       0.66170    0.44989    0.84169   1.00
H2       0.62155    0.48343    0.84416   1.00
H2       0.66094    0.48746    0.87845   1.00
C4       0.64373    0.41440    0.91517   1.00
C4       0.68627    0.41560    0.91483   1.00
C3b      0.70601    0.44178    0.93972   1.00
C5       0.68437    0.46879    0.96691   1.00
H2       0.66629    0.45162    0.98753   1.00
H2       0.70449    0.48730    0.98429   1.00
H2       0.66495    0.48836    0.94995   1.00
C3b      0.70704    0.39055    0.88961   1.00
C5       0.68652    0.36235    0.86276   1.00
H2       0.66717    0.37848    0.84244   1.00
H2       0.70735    0.34499    0.84505   1.00
H2       0.66850    0.34174    0.88002   1.00
C3a      0.74655    0.44263    0.93912   1.00
H1       0.76200    0.46265    0.95814   1.00
C3a      0.74757    0.39197    0.88955   1.00
H1       0.76381    0.37285    0.87028   1.00
C2       0.76743    0.41787    0.91417   1.00
C2       0.41417    0.26743    0.91213   1.00
C3a      0.38900    0.24616    0.88793   1.00
H1       0.36930    0.26131    0.86835   1.00
C3a      0.43967    0.24796    0.93747   1.00
H1       0.45912    0.26449    0.95616   1.00
C3b      0.38905    0.20562    0.88879   1.00
C5       0.36161    0.18356    0.86239   1.00
H2       0.34166    0.16516    0.88002   1.00
H2       0.34350    0.20339    0.84427   1.00
H2       0.37842    0.16440    0.84244   1.00
C3b      0.44028    0.20744    0.93888   1.00
C5       0.46806    0.18733    0.96647   1.00
H2       0.48831    0.16830    0.94989   1.00
H2       0.48584    0.20845    0.98343   1.00
H2       0.45155    0.16906    0.98746   1.00
C4       0.41483    0.18627    0.91440   1.00
C4       0.41517    0.14373    0.91560   1.00
C3b      0.39028    0.12399    0.94178   1.00
C5       0.36309    0.14563    0.96879   1.00
H2       0.34247    0.16371    0.95162   1.00
H2       0.34571    0.12551    0.98730   1.00
H2       0.38005    0.16505    0.98836   1.00
C3b      0.44039    0.12296    0.89055   1.00
C5       0.46724    0.14348    0.86235   1.00
H2       0.48756    0.16283    0.87848   1.00
H2       0.48495    0.12265    0.84499   1.00
H2       0.44998    0.16150    0.84174   1.00
C3a      0.39088    0.08345    0.94263   1.00
H1       0.37186    0.06800    0.96265   1.00
C3a      0.44045    0.08243    0.89197   1.00
H1       0.45972    0.06619    0.87285   1.00
C2       0.41583    0.06257    0.91787   1.00
C2       0.41213    0.41417    0.76743   1.00
C3a      0.38793    0.38900    0.74616   1.00
H1       0.36835    0.36930    0.76131   1.00
C3a      0.43747    0.43967    0.74796   1.00
H1       0.45616    0.45912    0.76449   1.00
C3b      0.38879    0.38905    0.70562   1.00
C5       0.36239    0.36161    0.68356   1.00
H2       0.38002    0.34166    0.66516   1.00
H2       0.34427    0.34350    0.70339   1.00
H2       0.34244    0.37842    0.66440   1.00
C3b      0.43888    0.44028    0.70744   1.00
C5       0.46647    0.46806    0.68733   1.00
H2       0.44989    0.48831    0.66830   1.00
H2       0.48343    0.48584    0.70845   1.00
H2       0.48746    0.45155    0.66906   1.00
C4       0.41440    0.41483    0.68627   1.00
C4       0.41560    0.41517    0.64373   1.00
C3b      0.44178    0.39028    0.62399   1.00
C5       0.46879    0.36309    0.64563   1.00
H2       0.45162    0.34247    0.66371   1.00
H2       0.48730    0.34571    0.62551   1.00
H2       0.48836    0.38005    0.66505   1.00
C3b      0.39055    0.44039    0.62296   1.00
C5       0.36235    0.46724    0.64348   1.00
H2       0.37848    0.48756    0.66283   1.00
H2       0.34499    0.48495    0.62265   1.00
H2       0.34174    0.44998    0.66150   1.00
C3a      0.44263    0.39088    0.58345   1.00
H1       0.46265    0.37186    0.56800   1.00
C3a      0.39197    0.44045    0.58243   1.00
H1       0.37285    0.45972    0.56619   1.00
C2       0.41787    0.41583    0.56257   1.00
C2       0.41213    0.91583    0.56257   1.00
C3a      0.38793    0.94100    0.58384   1.00
H1       0.36835    0.96070    0.56869   1.00
C3a      0.43747    0.89033    0.58204   1.00
H1       0.45616    0.87088    0.56551   1.00
C3b      0.38879    0.94095    0.62438   1.00
C5       0.36239    0.96839    0.64644   1.00
H2       0.38002    0.98834    0.66484   1.00
H2       0.34427    0.98650    0.62661   1.00
H2       0.34244    0.95158    0.66560   1.00
C3b      0.43888    0.88972    0.62256   1.00
C5       0.46647    0.86194    0.64267   1.00
H2       0.44989    0.84169    0.66170   1.00
H2       0.48343    0.84416    0.62155   1.00
H2       0.48746    0.87845    0.66094   1.00
C4       0.41440    0.91517    0.64373   1.00
C4       0.41560    0.91483    0.68627   1.00
C3b      0.44178    0.93972    0.70601   1.00
C5       0.46879    0.96691    0.68437   1.00
H2       0.45162    0.98753    0.66629   1.00
H2       0.48730    0.98429    0.70449   1.00
H2       0.48836    0.94995    0.66495   1.00
C3b      0.39055    0.88961    0.70704   1.00
C5       0.36235    0.86276    0.68652   1.00
H2       0.37848    0.84244    0.66717   1.00
H2       0.34499    0.84505    0.70735   1.00
H2       0.34174    0.88002    0.66850   1.00
C3a      0.44263    0.93912    0.74655   1.00
H1       0.46265    0.95814    0.76200   1.00
C3a      0.39197    0.88955    0.74757   1.00
H1       0.37285    0.87028    0.76381   1.00
C2       0.41787    0.91417    0.76743   1.00
C2       0.41583    1.06257    0.41213   1.00
C3a      0.44100    1.08384    0.38793   1.00
H1       0.46070    1.06869    0.36835   1.00
C3a      0.39033    1.08204    0.43747   1.00
H1       0.37088    1.06551    0.45616   1.00
C3b      0.44095    1.12438    0.38879   1.00
C5       0.46839    1.14644    0.36239   1.00
H2       0.48834    1.16484    0.38002   1.00
H2       0.48650    1.12661    0.34427   1.00
H2       0.45158    1.16560    0.34244   1.00
C3b      0.38972    1.12256    0.43888   1.00
C5       0.36194    1.14267    0.46647   1.00
H2       0.34169    1.16170    0.44989   1.00
H2       0.34416    1.12155    0.48343   1.00
H2       0.37845    1.16094    0.48746   1.00
C4       0.41517    1.14373    0.41440   1.00
C4       0.41483    1.18627    0.41560   1.00
C3b      0.43972    1.20601    0.44178   1.00
C5       0.46691    1.18437    0.46879   1.00
H2       0.48753    1.16629    0.45162   1.00
H2       0.48429    1.20449    0.48730   1.00
H2       0.44995    1.16495    0.48836   1.00
C3b      0.38961    1.20704    0.39055   1.00
C5       0.36276    1.18652    0.36235   1.00
H2       0.34244    1.16717    0.37848   1.00
H2       0.34505    1.20735    0.34499   1.00
H2       0.38002    1.16850    0.34174   1.00
C3a      0.43912    1.24655    0.44263   1.00
H1       0.45814    1.26200    0.46265   1.00
C3a      0.38955    1.24757    0.39197   1.00
H1       0.37028    1.26381    0.37285   1.00
C2       0.41417    1.26743    0.41787   1.00
C2       0.26743    0.91213    0.41417   1.00
C3a      0.24616    0.88793    0.38900   1.00
H1       0.26131    0.86835    0.36930   1.00
C3a      0.24796    0.93747    0.43967   1.00
H1       0.26449    0.95616    0.45912   1.00
C3b      0.20562    0.88879    0.38905   1.00
C5       0.18356    0.86239    0.36161   1.00
H2       0.16516    0.88002    0.34166   1.00
H2       0.20339    0.84427    0.34350   1.00
H2       0.16440    0.84244    0.37842   1.00
C3b      0.20744    0.93888    0.44028   1.00
C5       0.18733    0.96647    0.46806   1.00
H2       0.16830    0.94989    0.48831   1.00
H2       0.20845    0.98343    0.48584   1.00
H2       0.16906    0.98746    0.45155   1.00
C4       0.18627    0.91440    0.41483   1.00
C4       0.14373    0.91560    0.41517   1.00
C3b      0.12399    0.94178    0.39028   1.00
C5       0.14563    0.96879    0.36309   1.00
H2       0.16371    0.95162    0.34247   1.00
H2       0.12551    0.98730    0.34571   1.00
H2       0.16505    0.98836    0.38005   1.00
C3b      0.12296    0.89055    0.44039   1.00
C5       0.14348    0.86235    0.46724   1.00
H2       0.16283    0.87848    0.48756   1.00
H2       0.12265    0.84499    0.48495   1.00
H2       0.16150    0.84174    0.44998   1.00
C3a      0.08345    0.94263    0.39088   1.00
H1       0.06800    0.96265    0.37186   1.00
C3a      0.08243    0.89197    0.44045   1.00
H1       0.06619    0.87285    0.45972   1.00
C2       0.06257    0.91787    0.41583   1.00
C2       0.56257    0.91213    0.41583   1.00
C3a      0.58384    0.88793    0.44100   1.00
H1       0.56869    0.86835    0.46070   1.00
C3a      0.58204    0.93747    0.39033   1.00
H1       0.56551    0.95616    0.37088   1.00
C3b      0.62438    0.88879    0.44095   1.00
C5       0.64644    0.86239    0.46839   1.00
H2       0.66484    0.88002    0.48834   1.00
H2       0.62661    0.84427    0.48650   1.00
H2       0.66560    0.84244    0.45158   1.00
C3b      0.62256    0.93888    0.38972   1.00
C5       0.64267    0.96647    0.36194   1.00
H2       0.66170    0.94989    0.34169   1.00
H2       0.62155    0.98343    0.34416   1.00
H2       0.66094    0.98746    0.37845   1.00
C4       0.64373    0.91440    0.41517   1.00
C4       0.68627    0.91560    0.41483   1.00
C3b      0.70601    0.94178    0.43972   1.00
C5       0.68437    0.96879    0.46691   1.00
H2       0.66629    0.95162    0.48753   1.00
H2       0.70449    0.98730    0.48429   1.00
H2       0.66495    0.98836    0.44995   1.00
C3b      0.70704    0.89055    0.38961   1.00
C5       0.68652    0.86235    0.36276   1.00
H2       0.66717    0.87848    0.34244   1.00
H2       0.70735    0.84499    0.34505   1.00
H2       0.66850    0.84174    0.38002   1.00
C3a      0.74655    0.94263    0.43912   1.00
H1       0.76200    0.96265    0.45814   1.00
C3a      0.74757    0.89197    0.38955   1.00
H1       0.76381    0.87285    0.37028   1.00
C2       0.76743    0.91787    0.41417   1.00
C2       0.41417    0.76743    0.41213   1.00
C3a      0.38900    0.74616    0.38793   1.00
H1       0.36930    0.76131    0.36835   1.00
C3a      0.43967    0.74796    0.43747   1.00
H1       0.45912    0.76449    0.45616   1.00
C3b      0.38905    0.70562    0.38879   1.00
C5       0.36161    0.68356    0.36239   1.00
H2       0.34166    0.66516    0.38002   1.00
H2       0.34350    0.70339    0.34427   1.00
H2       0.37842    0.66440    0.34244   1.00
C3b      0.44028    0.70744    0.43888   1.00
C5       0.46806    0.68733    0.46647   1.00
H2       0.48831    0.66830    0.44989   1.00
H2       0.48584    0.70845    0.48343   1.00
H2       0.45155    0.66906    0.48746   1.00
C4       0.41483    0.68627    0.41440   1.00
C4       0.41517    0.64373    0.41560   1.00
C3b      0.39028    0.62399    0.44178   1.00
C5       0.36309    0.64563    0.46879   1.00
H2       0.34247    0.66371    0.45162   1.00
H2       0.34571    0.62551    0.48730   1.00
H2       0.38005    0.66505    0.48836   1.00
C3b      0.44039    0.62296    0.39055   1.00
C5       0.46724    0.64348    0.36235   1.00
H2       0.48756    0.66283    0.37848   1.00
H2       0.48495    0.62265    0.34499   1.00
H2       0.44998    0.66150    0.34174   1.00
C3a      0.39088    0.58345    0.44263   1.00
H1       0.37186    0.56800    0.46265   1.00
C3a      0.44045    0.58243    0.39197   1.00
H1       0.45972    0.56619    0.37285   1.00
C2       0.41583    0.56257    0.41787   1.00
C2       0.41213    0.91417    0.26743   1.00
C3a      0.38793    0.88900    0.24616   1.00
H1       0.36835    0.86930    0.26131   1.00
C3a      0.43747    0.93967    0.24796   1.00
H1       0.45616    0.95912    0.26449   1.00
C3b      0.38879    0.88905    0.20562   1.00
C5       0.36239    0.86161    0.18356   1.00
H2       0.38002    0.84166    0.16516   1.00
H2       0.34427    0.84350    0.20339   1.00
H2       0.34244    0.87842    0.16440   1.00
C3b      0.43888    0.94028    0.20744   1.00
C5       0.46647    0.96806    0.18733   1.00
H2       0.44989    0.98831    0.16830   1.00
H2       0.48343    0.98584    0.20845   1.00
H2       0.48746    0.95155    0.16906   1.00
C4       0.41440    0.91483    0.18627   1.00
C4       0.41560    0.91517    0.14373   1.00
C3b      0.44178    0.89028    0.12399   1.00
C5       0.46879    0.86309    0.14563   1.00
H2       0.45162    0.84247    0.16371   1.00
H2       0.48730    0.84571    0.12551   1.00
H2       0.48836    0.88005    0.16505   1.00
C3b      0.39055    0.94039    0.12296   1.00
C5       0.36235    0.96724    0.14348   1.00
H2       0.37848    0.98756    0.16283   1.00
H2       0.34499    0.98495    0.12265   1.00
H2       0.34174    0.94998    0.16150   1.00
C3a      0.44263    0.89088    0.08345   1.00
H1       0.46265    0.87186    0.06800   1.00
C3a      0.39197    0.94045    0.08243   1.00
H1       0.37285    0.95972    0.06619   1.00
C2       0.41787    0.91583    0.06257   1.00
C2       0.91213    0.41583    0.56257   1.00
C3a      0.88793    0.44100    0.58384   1.00
H1       0.86835    0.46070    0.56869   1.00
C3a      0.93747    0.39033    0.58204   1.00
H1       0.95616    0.37088    0.56551   1.00
C3b      0.88879    0.44095    0.62438   1.00
C5       0.86239    0.46839    0.64644   1.00
H2       0.88002    0.48834    0.66484   1.00
H2       0.84427    0.48650    0.62661   1.00
H2       0.84244    0.45158    0.66560   1.00
C3b      0.93888    0.38972    0.62256   1.00
C5       0.96647    0.36194    0.64267   1.00
H2       0.94989    0.34169    0.66170   1.00
H2       0.98343    0.34416    0.62155   1.00
H2       0.98746    0.37845    0.66094   1.00
C4       0.91440    0.41517    0.64373   1.00
C4       0.91560    0.41483    0.68627   1.00
C3b      0.94178    0.43972    0.70601   1.00
C5       0.96879    0.46691    0.68437   1.00
H2       0.95162    0.48753    0.66629   1.00
H2       0.98730    0.48429    0.70449   1.00
H2       0.98836    0.44995    0.66495   1.00
C3b      0.89055    0.38961    0.70704   1.00
C5       0.86235    0.36276    0.68652   1.00
H2       0.87848    0.34244    0.66717   1.00
H2       0.84499    0.34505    0.70735   1.00
H2       0.84174    0.38002    0.66850   1.00
C3a      0.94263    0.43912    0.74655   1.00
H1       0.96265    0.45814    0.76200   1.00
C3a      0.89197    0.38955    0.74757   1.00
H1       0.87285    0.37028    0.76381   1.00
C2       0.91787    0.41417    0.76743   1.00
C2       0.91583    0.56257    0.41213   1.00
C3a      0.94100    0.58384    0.38793   1.00
H1       0.96070    0.56869    0.36835   1.00
C3a      0.89033    0.58204    0.43747   1.00
H1       0.87088    0.56551    0.45616   1.00
C3b      0.94095    0.62438    0.38879   1.00
C5       0.96839    0.64644    0.36239   1.00
H2       0.98834    0.66484    0.38002   1.00
H2       0.98650    0.62661    0.34427   1.00
H2       0.95158    0.66560    0.34244   1.00
C3b      0.88972    0.62256    0.43888   1.00
C5       0.86194    0.64267    0.46647   1.00
H2       0.84169    0.66170    0.44989   1.00
H2       0.84416    0.62155    0.48343   1.00
H2       0.87845    0.66094    0.48746   1.00
C4       0.91517    0.64373    0.41440   1.00
C4       0.91483    0.68627    0.41560   1.00
C3b      0.93972    0.70601    0.44178   1.00
C5       0.96691    0.68437    0.46879   1.00
H2       0.98753    0.66629    0.45162   1.00
H2       0.98429    0.70449    0.48730   1.00
H2       0.94995    0.66495    0.48836   1.00
C3b      0.88961    0.70704    0.39055   1.00
C5       0.86276    0.68652    0.36235   1.00
H2       0.84244    0.66717    0.37848   1.00
H2       0.84505    0.70735    0.34499   1.00
H2       0.88002    0.66850    0.34174   1.00
C3a      0.93912    0.74655    0.44263   1.00
H1       0.95814    0.76200    0.46265   1.00
C3a      0.88955    0.74757    0.39197   1.00
H1       0.87028    0.76381    0.37285   1.00
C2       0.91417    0.76743    0.41787   1.00
C2       0.76743    0.41213    0.41417   1.00
C3a      0.74616    0.38793    0.38900   1.00
H1       0.76131    0.36835    0.36930   1.00
C3a      0.74796    0.43747    0.43967   1.00
H1       0.76449    0.45616    0.45912   1.00
C3b      0.70562    0.38879    0.38905   1.00
C5       0.68356    0.36239    0.36161   1.00
H2       0.66516    0.38002    0.34166   1.00
H2       0.70339    0.34427    0.34350   1.00
H2       0.66440    0.34244    0.37842   1.00
C3b      0.70744    0.43888    0.44028   1.00
C5       0.68733    0.46647    0.46806   1.00
H2       0.66830    0.44989    0.48831   1.00
H2       0.70845    0.48343    0.48584   1.00
H2       0.66906    0.48746    0.45155   1.00
C4       0.68627    0.41440    0.41483   1.00
C4       0.64373    0.41560    0.41517   1.00
C3b      0.62399    0.44178    0.39028   1.00
C5       0.64563    0.46879    0.36309   1.00
H2       0.66371    0.45162    0.34247   1.00
H2       0.62551    0.48730    0.34571   1.00
H2       0.66505    0.48836    0.38005   1.00
C3b      0.62296    0.39055    0.44039   1.00
C5       0.64348    0.36235    0.46724   1.00
H2       0.66283    0.37848    0.48756   1.00
H2       0.62265    0.34499    0.48495   1.00
H2       0.66150    0.34174    0.44998   1.00
C3a      0.58345    0.44263    0.39088   1.00
H1       0.56800    0.46265    0.37186   1.00
C3a      0.58243    0.39197    0.44045   1.00
H1       0.56619    0.37285    0.45972   1.00
C2       0.56257    0.41787    0.41583   1.00
C2       1.06257    0.41213    0.41583   1.00
C3a      1.08384    0.38793    0.44100   1.00
H1       1.06869    0.36835    0.46070   1.00
C3a      1.08204    0.43747    0.39033   1.00
H1       1.06551    0.45616    0.37088   1.00
C3b      1.12438    0.38879    0.44095   1.00
C5       1.14644    0.36239    0.46839   1.00
H2       1.16484    0.38002    0.48834   1.00
H2       1.12661    0.34427    0.48650   1.00
H2       1.16560    0.34244    0.45158   1.00
C3b      1.12256    0.43888    0.38972   1.00
C5       1.14267    0.46647    0.36194   1.00
H2       1.16170    0.44989    0.34169   1.00
H2       1.12155    0.48343    0.34416   1.00
H2       1.16094    0.48746    0.37845   1.00
C4       1.14373    0.41440    0.41517   1.00
C4       1.18627    0.41560    0.41483   1.00
C3b      1.20601    0.44178    0.43972   1.00
C5       1.18437    0.46879    0.46691   1.00
H2       1.16629    0.45162    0.48753   1.00
H2       1.20449    0.48730    0.48429   1.00
H2       1.16495    0.48836    0.44995   1.00
C3b      1.20704    0.39055    0.38961   1.00
C5       1.18652    0.36235    0.36276   1.00
H2       1.16717    0.37848    0.34244   1.00
H2       1.20735    0.34499    0.34505   1.00
H2       1.16850    0.34174    0.38002   1.00
C3a      1.24655    0.44263    0.43912   1.00
H1       1.26200    0.46265    0.45814   1.00
C3a      1.24757    0.39197    0.38955   1.00
H1       1.26381    0.37285    0.37028   1.00
C2       1.26743    0.41787    0.41417   1.00
C2       0.91417    0.26743    0.41213   1.00
C3a      0.88900    0.24616    0.38793   1.00
H1       0.86930    0.26131    0.36835   1.00
C3a      0.93967    0.24796    0.43747   1.00
H1       0.95912    0.26449    0.45616   1.00
C3b      0.88905    0.20562    0.38879   1.00
C5       0.86161    0.18356    0.36239   1.00
H2       0.84166    0.16516    0.38002   1.00
H2       0.84350    0.20339    0.34427   1.00
H2       0.87842    0.16440    0.34244   1.00
C3b      0.94028    0.20744    0.43888   1.00
C5       0.96806    0.18733    0.46647   1.00
H2       0.98831    0.16830    0.44989   1.00
H2       0.98584    0.20845    0.48343   1.00
H2       0.95155    0.16906    0.48746   1.00
C4       0.91483    0.18627    0.41440   1.00
C4       0.91517    0.14373    0.41560   1.00
C3b      0.89028    0.12399    0.44178   1.00
C5       0.86309    0.14563    0.46879   1.00
H2       0.84247    0.16371    0.45162   1.00
H2       0.84571    0.12551    0.48730   1.00
H2       0.88005    0.16505    0.48836   1.00
C3b      0.94039    0.12296    0.39055   1.00
C5       0.96724    0.14348    0.36235   1.00
H2       0.98756    0.16283    0.37848   1.00
H2       0.98495    0.12265    0.34499   1.00
H2       0.94998    0.16150    0.34174   1.00
C3a      0.89088    0.08345    0.44263   1.00
H1       0.87186    0.06800    0.46265   1.00
C3a      0.94045    0.08243    0.39197   1.00
H1       0.95972    0.06619    0.37285   1.00
C2       0.91583    0.06257    0.41787   1.00
C2       0.91213    0.41417    0.26743   1.00
C3a      0.88793    0.38900    0.24616   1.00
H1       0.86835    0.36930    0.26131   1.00
C3a      0.93747    0.43967    0.24796   1.00
H1       0.95616    0.45912    0.26449   1.00
C3b      0.88879    0.38905    0.20562   1.00
C5       0.86239    0.36161    0.18356   1.00
H2       0.88002    0.34166    0.16516   1.00
H2       0.84427    0.34350    0.20339   1.00
H2       0.84244    0.37842    0.16440   1.00
C3b      0.93888    0.44028    0.20744   1.00
C5       0.96647    0.46806    0.18733   1.00
H2       0.94989    0.48831    0.16830   1.00
H2       0.98343    0.48584    0.20845   1.00
H2       0.98746    0.45155    0.16906   1.00
C4       0.91440    0.41483    0.18627   1.00
C4       0.91560    0.41517    0.14373   1.00
C3b      0.94178    0.39028    0.12399   1.00
C5       0.96879    0.36309    0.14563   1.00
H2       0.95162    0.34247    0.16371   1.00
H2       0.98730    0.34571    0.12551   1.00
H2       0.98836    0.38005    0.16505   1.00
C3b      0.89055    0.44039    0.12296   1.00
C5       0.86235    0.46724    0.14348   1.00
H2       0.87848    0.48756    0.16283   1.00
H2       0.84499    0.48495    0.12265   1.00
H2       0.84174    0.44998    0.16150   1.00
C3a      0.94263    0.39088    0.08345   1.00
H1       0.96265    0.37186    0.06800   1.00
C3a      0.89197    0.44045    0.08243   1.00
H1       0.87285    0.45972    0.06619   1.00
C2       0.91787    0.41583    0.06257   1.00
