data_IRMOF10_SG202_interpen_Ligand3cp_label_s.

_audit_creation_method             'generated by an auxiliary program of Tobunporous'

_symmetry_space_group_name_H-M     'P 1'
_symmetry_Int_Tables_number        1
_symmetry_cell_setting             triclinic

_cell_length_a                    34.2800
_cell_length_b                    34.2800
_cell_length_c                    34.2800
_cell_angle_alpha                 90.0000
_cell_angle_beta                  90.0000
_cell_angle_gamma                 90.0000

loop_
_atom_site_label
_atom_site_fract_x
_atom_site_fract_y
_atom_site_fract_z
_atom_site_occupancy
O1       0.75000    0.75000    0.75000   1.00
Zn1      0.71720    0.78280    0.78280   1.00
Zn1      0.78280    0.71720    0.78280   1.00
Zn1      0.78280    0.78280    0.71720   1.00
Zn1      0.71720    0.71720    0.71720   1.00
O2       0.72650    0.77350    0.83820   1.00
O2       0.72650    0.83820    0.77350   1.00
O2       0.66180    0.77350    0.77350   1.00
O2       0.77350    0.72650    0.83820   1.00
O2       0.83820    0.72650    0.77350   1.00
O2       0.77350    0.66180    0.77350   1.00
O2       0.77350    0.83820    0.72650   1.00
O2       0.83820    0.77350    0.72650   1.00
O2       0.77350    0.77350    0.66180   1.00
O2       0.66180    0.72650    0.72650   1.00
O2       0.72650    0.66180    0.72650   1.00
O2       0.72650    0.72650    0.66180   1.00
C1       0.75000    0.75000    0.85520   1.00
C1       0.75000    0.85520    0.75000   1.00
C1       0.64480    0.75000    0.75000   1.00
C1       0.85520    0.75000    0.75000   1.00
C1       0.75000    0.64480    0.75000   1.00
C1       0.75000    0.75000    0.64480   1.00
O1       0.25000    0.25000    0.75000   1.00
Zn1      0.21720    0.28280    0.78280   1.00
Zn1      0.28280    0.21720    0.78280   1.00
Zn1      0.28280    0.28280    0.71720   1.00
Zn1      0.21720    0.21720    0.71720   1.00
O2       0.22650    0.27350    0.83820   1.00
O2       0.22650    0.33820    0.77350   1.00
O2       0.16180    0.27350    0.77350   1.00
O2       0.27350    0.22650    0.83820   1.00
O2       0.33820    0.22650    0.77350   1.00
O2       0.27350    0.16180    0.77350   1.00
O2       0.27350    0.33820    0.72650   1.00
O2       0.33820    0.27350    0.72650   1.00
O2       0.27350    0.27350    0.66180   1.00
O2       0.16180    0.22650    0.72650   1.00
O2       0.22650    0.16180    0.72650   1.00
O2       0.22650    0.22650    0.66180   1.00
C1       0.25000    0.25000    0.85520   1.00
C1       0.25000    0.35520    0.75000   1.00
C1       0.14480    0.25000    0.75000   1.00
C1       0.35520    0.25000    0.75000   1.00
C1       0.25000    0.14480    0.75000   1.00
C1       0.25000    0.25000    0.64480   1.00
O1       0.25000    0.75000    0.25000   1.00
Zn1      0.21720    0.78280    0.28280   1.00
Zn1      0.28280    0.71720    0.28280   1.00
Zn1      0.28280    0.78280    0.21720   1.00
Zn1      0.21720    0.71720    0.21720   1.00
O2       0.22650    0.77350    0.33820   1.00
O2       0.22650    0.83820    0.27350   1.00
O2       0.16180    0.77350    0.27350   1.00
O2       0.27350    0.72650    0.33820   1.00
O2       0.33820    0.72650    0.27350   1.00
O2       0.27350    0.66180    0.27350   1.00
O2       0.27350    0.83820    0.22650   1.00
O2       0.33820    0.77350    0.22650   1.00
O2       0.27350    0.77350    0.16180   1.00
O2       0.16180    0.72650    0.22650   1.00
O2       0.22650    0.66180    0.22650   1.00
O2       0.22650    0.72650    0.16180   1.00
C1       0.25000    0.75000    0.35520   1.00
C1       0.25000    0.85520    0.25000   1.00
C1       0.14480    0.75000    0.25000   1.00
C1       0.35520    0.75000    0.25000   1.00
C1       0.25000    0.64480    0.25000   1.00
C1       0.25000    0.75000    0.14480   1.00
O1       0.75000    0.25000    0.25000   1.00
Zn1      0.71720    0.28280    0.28280   1.00
Zn1      0.78280    0.21720    0.28280   1.00
Zn1      0.78280    0.28280    0.21720   1.00
Zn1      0.71720    0.21720    0.21720   1.00
O2       0.72650    0.27350    0.33820   1.00
O2       0.72650    0.33820    0.27350   1.00
O2       0.66180    0.27350    0.27350   1.00
O2       0.77350    0.22650    0.33820   1.00
O2       0.83820    0.22650    0.27350   1.00
O2       0.77350    0.16180    0.27350   1.00
O2       0.77350    0.33820    0.22650   1.00
O2       0.83820    0.27350    0.22650   1.00
O2       0.77350    0.27350    0.16180   1.00
O2       0.66180    0.22650    0.22650   1.00
O2       0.72650    0.16180    0.22650   1.00
O2       0.72650    0.22650    0.16180   1.00
C1       0.75000    0.25000    0.35520   1.00
C1       0.75000    0.35520    0.25000   1.00
C1       0.64480    0.25000    0.25000   1.00
C1       0.85520    0.25000    0.25000   1.00
C1       0.75000    0.14480    0.25000   1.00
C1       0.75000    0.25000    0.14480   1.00
O1       0.25000    0.25000    0.25000   1.00
Zn1      0.28280    0.21720    0.21720   1.00
Zn1      0.21720    0.28280    0.21720   1.00
Zn1      0.21720    0.21720    0.28280   1.00
Zn1      0.28280    0.28280    0.28280   1.00
O2       0.27350    0.22650    0.16180   1.00
O2       0.27350    0.16180    0.22650   1.00
O2       0.33820    0.22650    0.22650   1.00
O2       0.22650    0.27350    0.16180   1.00
O2       0.16180    0.27350    0.22650   1.00
O2       0.22650    0.33820    0.22650   1.00
O2       0.22650    0.16180    0.27350   1.00
O2       0.16180    0.22650    0.27350   1.00
O2       0.22650    0.22650    0.33820   1.00
O2       0.33820    0.27350    0.27350   1.00
O2       0.27350    0.33820    0.27350   1.00
O2       0.27350    0.27350    0.33820   1.00
C1       0.25000    0.25000    0.14480   1.00
C1       0.25000    0.14480    0.25000   1.00
C1       0.35520    0.25000    0.25000   1.00
C1       0.14480    0.25000    0.25000   1.00
C1       0.25000    0.35520    0.25000   1.00
C1       0.25000    0.25000    0.35520   1.00
O1       0.75000    0.75000    0.25000   1.00
Zn1      0.78280    0.71720    0.21720   1.00
Zn1      0.71720    0.78280    0.21720   1.00
Zn1      0.71720    0.71720    0.28280   1.00
Zn1      0.78280    0.78280    0.28280   1.00
O2       0.77350    0.72650    0.16180   1.00
O2       0.77350    0.66180    0.22650   1.00
O2       0.83820    0.72650    0.22650   1.00
O2       0.72650    0.77350    0.16180   1.00
O2       0.66180    0.77350    0.22650   1.00
O2       0.72650    0.83820    0.22650   1.00
O2       0.72650    0.66180    0.27350   1.00
O2       0.66180    0.72650    0.27350   1.00
O2       0.72650    0.72650    0.33820   1.00
O2       0.83820    0.77350    0.27350   1.00
O2       0.77350    0.83820    0.27350   1.00
O2       0.77350    0.77350    0.33820   1.00
C1       0.75000    0.75000    0.14480   1.00
C1       0.75000    0.64480    0.25000   1.00
C1       0.85520    0.75000    0.25000   1.00
C1       0.64480    0.75000    0.25000   1.00
C1       0.75000    0.85520    0.25000   1.00
C1       0.75000    0.75000    0.35520   1.00
O1       0.75000    0.25000    0.75000   1.00
Zn1      0.78280    0.21720    0.71720   1.00
Zn1      0.71720    0.28280    0.71720   1.00
Zn1      0.71720    0.21720    0.78280   1.00
Zn1      0.78280    0.28280    0.78280   1.00
O2       0.77350    0.22650    0.66180   1.00
O2       0.77350    0.16180    0.72650   1.00
O2       0.83820    0.22650    0.72650   1.00
O2       0.72650    0.27350    0.66180   1.00
O2       0.66180    0.27350    0.72650   1.00
O2       0.72650    0.33820    0.72650   1.00
O2       0.72650    0.16180    0.77350   1.00
O2       0.66180    0.22650    0.77350   1.00
O2       0.72650    0.22650    0.83820   1.00
O2       0.83820    0.27350    0.77350   1.00
O2       0.77350    0.33820    0.77350   1.00
O2       0.77350    0.27350    0.83820   1.00
C1       0.75000    0.25000    0.64480   1.00
C1       0.75000    0.14480    0.75000   1.00
C1       0.85520    0.25000    0.75000   1.00
C1       0.64480    0.25000    0.75000   1.00
C1       0.75000    0.35520    0.75000   1.00
C1       0.75000    0.25000    0.85520   1.00
O1       0.25000    0.75000    0.75000   1.00
Zn1      0.28280    0.71720    0.71720   1.00
Zn1      0.21720    0.78280    0.71720   1.00
Zn1      0.21720    0.71720    0.78280   1.00
Zn1      0.28280    0.78280    0.78280   1.00
O2       0.27350    0.72650    0.66180   1.00
O2       0.27350    0.66180    0.72650   1.00
O2       0.33820    0.72650    0.72650   1.00
O2       0.22650    0.77350    0.66180   1.00
O2       0.16180    0.77350    0.72650   1.00
O2       0.22650    0.83820    0.72650   1.00
O2       0.22650    0.66180    0.77350   1.00
O2       0.16180    0.72650    0.77350   1.00
O2       0.22650    0.72650    0.83820   1.00
O2       0.33820    0.77350    0.77350   1.00
O2       0.27350    0.83820    0.77350   1.00
O2       0.27350    0.77350    0.83820   1.00
C1       0.25000    0.75000    0.64480   1.00
C1       0.25000    0.64480    0.75000   1.00
C1       0.35520    0.75000    0.75000   1.00
C1       0.14480    0.75000    0.75000   1.00
C1       0.25000    0.85520    0.75000   1.00
C1       0.25000    0.75000    0.85520   1.00
O1       0.91500    0.91500    0.91500   1.00
Zn1      0.88220    0.94780    0.94780   1.00
Zn1      0.94780    0.88220    0.94780   1.00
Zn1      0.94780    0.94780    0.88220   1.00
Zn1      0.88220    0.88220    0.88220   1.00
O2       0.89150    0.93850    1.00320   1.00
O2       0.89150    1.00320    0.93850   1.00
O2       0.82680    0.93850    0.93850   1.00
O2       0.93850    0.89150    1.00320   1.00
O2       1.00320    0.89150    0.93850   1.00
O2       0.93850    0.82680    0.93850   1.00
O2       0.93850    1.00320    0.89150   1.00
O2       1.00320    0.93850    0.89150   1.00
O2       0.93850    0.93850    0.82680   1.00
O2       0.82680    0.89150    0.89150   1.00
O2       0.89150    0.82680    0.89150   1.00
O2       0.89150    0.89150    0.82680   1.00
C1       0.91500    0.91500    1.02020   1.00
C1       0.91500    1.02020    0.91500   1.00
C1       0.80980    0.91500    0.91500   1.00
C1       1.02020    0.91500    0.91500   1.00
C1       0.91500    0.80980    0.91500   1.00
C1       0.91500    0.91500    0.80980   1.00
O1       0.41500    0.41500    0.91500   1.00
Zn1      0.38220    0.44780    0.94780   1.00
Zn1      0.44780    0.38220    0.94780   1.00
Zn1      0.44780    0.44780    0.88220   1.00
Zn1      0.38220    0.38220    0.88220   1.00
O2       0.39150    0.43850    1.00320   1.00
O2       0.39150    0.50320    0.93850   1.00
O2       0.32680    0.43850    0.93850   1.00
O2       0.43850    0.39150    1.00320   1.00
O2       0.50320    0.39150    0.93850   1.00
O2       0.43850    0.32680    0.93850   1.00
O2       0.43850    0.50320    0.89150   1.00
O2       0.50320    0.43850    0.89150   1.00
O2       0.43850    0.43850    0.82680   1.00
O2       0.32680    0.39150    0.89150   1.00
O2       0.39150    0.32680    0.89150   1.00
O2       0.39150    0.39150    0.82680   1.00
C1       0.41500    0.41500    1.02020   1.00
C1       0.41500    0.52020    0.91500   1.00
C1       0.30980    0.41500    0.91500   1.00
C1       0.52020    0.41500    0.91500   1.00
C1       0.41500    0.30980    0.91500   1.00
C1       0.41500    0.41500    0.80980   1.00
O1       0.41500    0.91500    0.41500   1.00
Zn1      0.38220    0.94780    0.44780   1.00
Zn1      0.44780    0.88220    0.44780   1.00
Zn1      0.44780    0.94780    0.38220   1.00
Zn1      0.38220    0.88220    0.38220   1.00
O2       0.39150    0.93850    0.50320   1.00
O2       0.39150    1.00320    0.43850   1.00
O2       0.32680    0.93850    0.43850   1.00
O2       0.43850    0.89150    0.50320   1.00
O2       0.50320    0.89150    0.43850   1.00
O2       0.43850    0.82680    0.43850   1.00
O2       0.43850    1.00320    0.39150   1.00
O2       0.50320    0.93850    0.39150   1.00
O2       0.43850    0.93850    0.32680   1.00
O2       0.32680    0.89150    0.39150   1.00
O2       0.39150    0.82680    0.39150   1.00
O2       0.39150    0.89150    0.32680   1.00
C1       0.41500    0.91500    0.52020   1.00
C1       0.41500    1.02020    0.41500   1.00
C1       0.30980    0.91500    0.41500   1.00
C1       0.52020    0.91500    0.41500   1.00
C1       0.41500    0.80980    0.41500   1.00
C1       0.41500    0.91500    0.30980   1.00
O1       0.91500    0.41500    0.41500   1.00
Zn1      0.88220    0.44780    0.44780   1.00
Zn1      0.94780    0.38220    0.44780   1.00
Zn1      0.94780    0.44780    0.38220   1.00
Zn1      0.88220    0.38220    0.38220   1.00
O2       0.89150    0.43850    0.50320   1.00
O2       0.89150    0.50320    0.43850   1.00
O2       0.82680    0.43850    0.43850   1.00
O2       0.93850    0.39150    0.50320   1.00
O2       1.00320    0.39150    0.43850   1.00
O2       0.93850    0.32680    0.43850   1.00
O2       0.93850    0.50320    0.39150   1.00
O2       1.00320    0.43850    0.39150   1.00
O2       0.93850    0.43850    0.32680   1.00
O2       0.82680    0.39150    0.39150   1.00
O2       0.89150    0.32680    0.39150   1.00
O2       0.89150    0.39150    0.32680   1.00
C1       0.91500    0.41500    0.52020   1.00
C1       0.91500    0.52020    0.41500   1.00
C1       0.80980    0.41500    0.41500   1.00
C1       1.02020    0.41500    0.41500   1.00
C1       0.91500    0.30980    0.41500   1.00
C1       0.91500    0.41500    0.30980   1.00
O1       0.41500    0.41500    0.41500   1.00
Zn1      0.44780    0.38220    0.38220   1.00
Zn1      0.38220    0.44780    0.38220   1.00
Zn1      0.38220    0.38220    0.44780   1.00
Zn1      0.44780    0.44780    0.44780   1.00
O2       0.43850    0.39150    0.32680   1.00
O2       0.43850    0.32680    0.39150   1.00
O2       0.50320    0.39150    0.39150   1.00
O2       0.39150    0.43850    0.32680   1.00
O2       0.32680    0.43850    0.39150   1.00
O2       0.39150    0.50320    0.39150   1.00
O2       0.39150    0.32680    0.43850   1.00
O2       0.32680    0.39150    0.43850   1.00
O2       0.39150    0.39150    0.50320   1.00
O2       0.50320    0.43850    0.43850   1.00
O2       0.43850    0.50320    0.43850   1.00
O2       0.43850    0.43850    0.50320   1.00
C1       0.41500    0.41500    0.30980   1.00
C1       0.41500    0.30980    0.41500   1.00
C1       0.52020    0.41500    0.41500   1.00
C1       0.30980    0.41500    0.41500   1.00
C1       0.41500    0.52020    0.41500   1.00
C1       0.41500    0.41500    0.52020   1.00
O1       0.91500    0.91500    0.41500   1.00
Zn1      0.94780    0.88220    0.38220   1.00
Zn1      0.88220    0.94780    0.38220   1.00
Zn1      0.88220    0.88220    0.44780   1.00
Zn1      0.94780    0.94780    0.44780   1.00
O2       0.93850    0.89150    0.32680   1.00
O2       0.93850    0.82680    0.39150   1.00
O2       1.00320    0.89150    0.39150   1.00
O2       0.89150    0.93850    0.32680   1.00
O2       0.82680    0.93850    0.39150   1.00
O2       0.89150    1.00320    0.39150   1.00
O2       0.89150    0.82680    0.43850   1.00
O2       0.82680    0.89150    0.43850   1.00
O2       0.89150    0.89150    0.50320   1.00
O2       1.00320    0.93850    0.43850   1.00
O2       0.93850    1.00320    0.43850   1.00
O2       0.93850    0.93850    0.50320   1.00
C1       0.91500    0.91500    0.30980   1.00
C1       0.91500    0.80980    0.41500   1.00
C1       1.02020    0.91500    0.41500   1.00
C1       0.80980    0.91500    0.41500   1.00
C1       0.91500    1.02020    0.41500   1.00
C1       0.91500    0.91500    0.52020   1.00
O1       0.91500    0.41500    0.91500   1.00
Zn1      0.94780    0.38220    0.88220   1.00
Zn1      0.88220    0.44780    0.88220   1.00
Zn1      0.88220    0.38220    0.94780   1.00
Zn1      0.94780    0.44780    0.94780   1.00
O2       0.93850    0.39150    0.82680   1.00
O2       0.93850    0.32680    0.89150   1.00
O2       1.00320    0.39150    0.89150   1.00
O2       0.89150    0.43850    0.82680   1.00
O2       0.82680    0.43850    0.89150   1.00
O2       0.89150    0.50320    0.89150   1.00
O2       0.89150    0.32680    0.93850   1.00
O2       0.82680    0.39150    0.93850   1.00
O2       0.89150    0.39150    1.00320   1.00
O2       1.00320    0.43850    0.93850   1.00
O2       0.93850    0.50320    0.93850   1.00
O2       0.93850    0.43850    1.00320   1.00
C1       0.91500    0.41500    0.80980   1.00
C1       0.91500    0.30980    0.91500   1.00
C1       1.02020    0.41500    0.91500   1.00
C1       0.80980    0.41500    0.91500   1.00
C1       0.91500    0.52020    0.91500   1.00
C1       0.91500    0.41500    1.02020   1.00
O1       0.41500    0.91500    0.91500   1.00
Zn1      0.44780    0.88220    0.88220   1.00
Zn1      0.38220    0.94780    0.88220   1.00
Zn1      0.38220    0.88220    0.94780   1.00
Zn1      0.44780    0.94780    0.94780   1.00
O2       0.43850    0.89150    0.82680   1.00
O2       0.43850    0.82680    0.89150   1.00
O2       0.50320    0.89150    0.89150   1.00
O2       0.39150    0.93850    0.82680   1.00
O2       0.32680    0.93850    0.89150   1.00
O2       0.39150    1.00320    0.89150   1.00
O2       0.39150    0.82680    0.93850   1.00
O2       0.32680    0.89150    0.93850   1.00
O2       0.39150    0.89150    1.00320   1.00
O2       0.50320    0.93850    0.93850   1.00
O2       0.43850    1.00320    0.93850   1.00
O2       0.43850    0.93850    1.00320   1.00
C1       0.41500    0.91500    0.80980   1.00
C1       0.41500    0.80980    0.91500   1.00
C1       0.52020    0.91500    0.91500   1.00
C1       0.30980    0.91500    0.91500   1.00
C1       0.41500    1.02020    0.91500   1.00
C1       0.41500    0.91500    1.02020   1.00
C4       0.74698    0.74960    1.02084   1.00
C4       0.74741    0.75019    0.97912   1.00
C3       0.71558    0.76411    1.04364   1.00
C3       0.71818    0.76850    0.95616   1.00
C3       0.77991    0.73425    1.04123   1.00
C3       0.77860    0.73143    0.95886   1.00
C2       0.74917    0.74913    1.10512   1.00
C2       0.75083    0.75087    0.89488   1.00
C3       0.71671    0.76410    1.08462   1.00
C3       0.71962    0.76853    0.91519   1.00
C3       0.78017    0.73383    1.08258   1.00
C3       0.78039    0.73324    0.91762   1.00
H1       0.69090    0.77499    1.03115   1.00
H1       0.69510    0.78257    0.96852   1.00
C5       0.81227    0.71926    1.02020   1.00
C5       0.80803    0.71128    0.97980   1.00
H1       0.69325    0.77524    1.09955   1.00
H1       0.69749    0.78194    0.90010   1.00
H1       0.80351    0.72174    1.09680   1.00
H1       0.80418    0.72184    0.90368   1.00
O3       0.84640    0.71058    1.03961   1.00
O3       0.83385    0.68665    0.96099   1.00
Si1      0.88100    0.74322    1.04247   1.00
Si1      0.82082    0.64159    0.95279   1.00
C6       0.91123    0.71759    1.07538   1.00
C6       0.90276    0.74669    0.99598   1.00
C6       0.86520    0.78796    1.06253   1.00
C6       0.77342    0.62691    0.96693   1.00
C6       0.82560    0.63717    0.90198   1.00
C6       0.85607    0.61132    0.97477   1.00
C6       0.89032    0.69972    1.11194   1.00
H2       0.92050    0.69259    1.05791   1.00
C6       0.94983    0.73631    1.09147   1.00
H2       0.89639    0.71807    0.98358   1.00
C6       0.88592    0.77706    0.96634   1.00
C6       0.94812    0.75137    0.99336   1.00
H2       0.84902    0.77842    1.08831   1.00
C6       0.89741    0.81665    1.07772   1.00
C6       0.83677    0.81476    1.03849   1.00
C6       0.76156    0.63192    1.01071   1.00
C6       0.73736    0.64033    0.94225   1.00
H2       0.77441    0.59544    0.96212   1.00
H2       0.80189    0.65506    0.89051   1.00
C6       0.86377    0.65450    0.88378   1.00
C6       0.82028    0.59559    0.88393   1.00
H2       0.88001    0.61081    0.95375   1.00
C6       0.87463    0.62668    1.01336   1.00
C6       0.84513    0.56761    0.98244   1.00
H2       0.86621    0.68067    1.10346   1.00
H2       0.87865    0.72256    1.13090   1.00
H2       0.91040    0.68190    1.12917   1.00
H2       0.97185    0.71368    1.09608   1.00
H2       0.96229    0.75783    1.07178   1.00
H2       0.94551    0.75058    1.11964   1.00
H2       0.89598    0.77071    0.93672   1.00
H2       0.85420    0.77643    0.96532   1.00
H2       0.89534    0.80663    0.97352   1.00
H2       0.96315    0.72780    1.00862   1.00
H2       0.95818    0.75016    0.96308   1.00
H2       0.95753    0.77930    1.00550   1.00
H2       0.91911    0.82258    1.05514   1.00
H2       0.88515    0.84461    1.08708   1.00
H2       0.91206    0.80504    1.10332   1.00
H2       0.85248    0.83447    1.01902   1.00
H2       0.81625    0.79862    1.02068   1.00
H2       0.81951    0.83291    1.05828   1.00
H2       0.75152    0.66144    1.01688   1.00
H2       0.73758    0.61220    1.01809   1.00
H2       0.78549    0.62523    1.03048   1.00
H2       0.71109    0.62457    0.95125   1.00
H2       0.73120    0.67127    0.94574   1.00
H2       0.74114    0.63434    0.91122   1.00
H2       0.86110    0.65640    0.85202   1.00
H2       0.86932    0.68407    0.89435   1.00
H2       0.88930    0.63665    0.89035   1.00
H2       0.79356    0.58162    0.89416   1.00
H2       0.81821    0.59745    0.85212   1.00
H2       0.84496    0.57665    0.89085   1.00
H2       0.85311    0.62994    1.03656   1.00
H2       0.89774    0.60737    1.02381   1.00
H2       0.88784    0.65503    1.00834   1.00
H2       0.87099    0.55069    0.99044   1.00
H2       0.82407    0.56487    1.00622   1.00
H2       0.83280    0.55382    0.95657   1.00
C4       0.74960    1.02084    0.74698   1.00
C4       0.75019    0.97912    0.74741   1.00
C3       0.76411    1.04364    0.71558   1.00
C3       0.76850    0.95616    0.71818   1.00
C3       0.73425    1.04123    0.77991   1.00
C3       0.73143    0.95886    0.77860   1.00
C2       0.74913    1.10512    0.74917   1.00
C2       0.75087    0.89488    0.75083   1.00
C3       0.76410    1.08462    0.71671   1.00
C3       0.76853    0.91519    0.71962   1.00
C3       0.73383    1.08258    0.78017   1.00
C3       0.73324    0.91762    0.78039   1.00
H1       0.77499    1.03115    0.69090   1.00
H1       0.78257    0.96852    0.69510   1.00
C5       0.71926    1.02020    0.81227   1.00
C5       0.71128    0.97980    0.80803   1.00
H1       0.77524    1.09955    0.69325   1.00
H1       0.78194    0.90010    0.69749   1.00
H1       0.72174    1.09680    0.80351   1.00
H1       0.72184    0.90368    0.80418   1.00
O3       0.71058    1.03961    0.84640   1.00
O3       0.68665    0.96099    0.83385   1.00
Si1      0.74322    1.04247    0.88100   1.00
Si1      0.64159    0.95279    0.82082   1.00
C6       0.71759    1.07538    0.91123   1.00
C6       0.74669    0.99598    0.90276   1.00
C6       0.78796    1.06253    0.86520   1.00
C6       0.62691    0.96693    0.77342   1.00
C6       0.63717    0.90198    0.82560   1.00
C6       0.61132    0.97477    0.85607   1.00
C6       0.69972    1.11194    0.89032   1.00
H2       0.69259    1.05791    0.92050   1.00
C6       0.73631    1.09147    0.94983   1.00
H2       0.71807    0.98358    0.89639   1.00
C6       0.77706    0.96634    0.88592   1.00
C6       0.75137    0.99336    0.94812   1.00
H2       0.77842    1.08831    0.84902   1.00
C6       0.81665    1.07772    0.89741   1.00
C6       0.81476    1.03849    0.83677   1.00
C6       0.63192    1.01071    0.76156   1.00
C6       0.64033    0.94225    0.73736   1.00
H2       0.59544    0.96212    0.77441   1.00
H2       0.65506    0.89051    0.80189   1.00
C6       0.65450    0.88378    0.86377   1.00
C6       0.59559    0.88393    0.82028   1.00
H2       0.61081    0.95375    0.88001   1.00
C6       0.62668    1.01336    0.87463   1.00
C6       0.56761    0.98244    0.84513   1.00
H2       0.68067    1.10346    0.86621   1.00
H2       0.72256    1.13090    0.87865   1.00
H2       0.68190    1.12917    0.91040   1.00
H2       0.71368    1.09608    0.97185   1.00
H2       0.75783    1.07178    0.96229   1.00
H2       0.75058    1.11964    0.94551   1.00
H2       0.77071    0.93672    0.89598   1.00
H2       0.77643    0.96532    0.85420   1.00
H2       0.80663    0.97352    0.89534   1.00
H2       0.72780    1.00862    0.96315   1.00
H2       0.75016    0.96308    0.95818   1.00
H2       0.77930    1.00550    0.95753   1.00
H2       0.82258    1.05514    0.91911   1.00
H2       0.84461    1.08708    0.88515   1.00
H2       0.80504    1.10332    0.91206   1.00
H2       0.83447    1.01902    0.85248   1.00
H2       0.79862    1.02068    0.81625   1.00
H2       0.83291    1.05828    0.81951   1.00
H2       0.66144    1.01688    0.75152   1.00
H2       0.61220    1.01809    0.73758   1.00
H2       0.62523    1.03048    0.78549   1.00
H2       0.62457    0.95125    0.71109   1.00
H2       0.67127    0.94574    0.73120   1.00
H2       0.63434    0.91122    0.74114   1.00
H2       0.65640    0.85202    0.86110   1.00
H2       0.68407    0.89435    0.86932   1.00
H2       0.63665    0.89035    0.88930   1.00
H2       0.58162    0.89416    0.79356   1.00
H2       0.59745    0.85212    0.81821   1.00
H2       0.57665    0.89085    0.84496   1.00
H2       0.62994    1.03656    0.85311   1.00
H2       0.60737    1.02381    0.89774   1.00
H2       0.65503    1.00834    0.88784   1.00
H2       0.55069    0.99044    0.87099   1.00
H2       0.56487    1.00622    0.82407   1.00
H2       0.55382    0.95657    0.83280   1.00
C4       0.47916    0.74698    0.75040   1.00
C4       0.52088    0.74741    0.74981   1.00
C3       0.45636    0.71558    0.73589   1.00
C3       0.54384    0.71818    0.73150   1.00
C3       0.45877    0.77991    0.76575   1.00
C3       0.54114    0.77860    0.76857   1.00
C2       0.39488    0.74917    0.75087   1.00
C2       0.60512    0.75083    0.74913   1.00
C3       0.41538    0.71671    0.73590   1.00
C3       0.58481    0.71962    0.73147   1.00
C3       0.41742    0.78017    0.76617   1.00
C3       0.58238    0.78039    0.76676   1.00
H1       0.46885    0.69090    0.72501   1.00
H1       0.53148    0.69510    0.71743   1.00
C5       0.47980    0.81227    0.78074   1.00
C5       0.52020    0.80803    0.78872   1.00
H1       0.40045    0.69325    0.72476   1.00
H1       0.59990    0.69749    0.71806   1.00
H1       0.40320    0.80351    0.77826   1.00
H1       0.59632    0.80418    0.77816   1.00
O3       0.46039    0.84640    0.78942   1.00
O3       0.53901    0.83385    0.81335   1.00
Si1      0.45753    0.88100    0.75678   1.00
Si1      0.54721    0.82082    0.85841   1.00
C6       0.42462    0.91123    0.78241   1.00
C6       0.50402    0.90276    0.75331   1.00
C6       0.43747    0.86520    0.71204   1.00
C6       0.53307    0.77342    0.87309   1.00
C6       0.59802    0.82560    0.86283   1.00
C6       0.52523    0.85607    0.88868   1.00
C6       0.38806    0.89032    0.80028   1.00
H2       0.44209    0.92050    0.80741   1.00
C6       0.40853    0.94983    0.76369   1.00
H2       0.51642    0.89639    0.78193   1.00
C6       0.53366    0.88592    0.72294   1.00
C6       0.50664    0.94812    0.74863   1.00
H2       0.41169    0.84902    0.72158   1.00
C6       0.42228    0.89741    0.68335   1.00
C6       0.46151    0.83677    0.68524   1.00
C6       0.48929    0.76156    0.86808   1.00
C6       0.55775    0.73736    0.85967   1.00
H2       0.53788    0.77441    0.90456   1.00
H2       0.60949    0.80189    0.84494   1.00
C6       0.61622    0.86377    0.84550   1.00
C6       0.61607    0.82028    0.90441   1.00
H2       0.54625    0.88001    0.88919   1.00
C6       0.48664    0.87463    0.87332   1.00
C6       0.51756    0.84513    0.93239   1.00
H2       0.39654    0.86621    0.81933   1.00
H2       0.36910    0.87865    0.77744   1.00
H2       0.37083    0.91040    0.81810   1.00
H2       0.40392    0.97185    0.78632   1.00
H2       0.42822    0.96229    0.74217   1.00
H2       0.38036    0.94551    0.74942   1.00
H2       0.56328    0.89598    0.72929   1.00
H2       0.53468    0.85420    0.72357   1.00
H2       0.52648    0.89534    0.69337   1.00
H2       0.49138    0.96315    0.77220   1.00
H2       0.53692    0.95818    0.74984   1.00
H2       0.49450    0.95753    0.72070   1.00
H2       0.44486    0.91911    0.67742   1.00
H2       0.41292    0.88515    0.65539   1.00
H2       0.39668    0.91206    0.69496   1.00
H2       0.48098    0.85248    0.66553   1.00
H2       0.47932    0.81625    0.70138   1.00
H2       0.44172    0.81951    0.66709   1.00
H2       0.48312    0.75152    0.83856   1.00
H2       0.48191    0.73758    0.88780   1.00
H2       0.46952    0.78549    0.87477   1.00
H2       0.54875    0.71109    0.87543   1.00
H2       0.55426    0.73120    0.82873   1.00
H2       0.58878    0.74114    0.86566   1.00
H2       0.64798    0.86110    0.84360   1.00
H2       0.60565    0.86932    0.81593   1.00
H2       0.60965    0.88930    0.86335   1.00
H2       0.60584    0.79356    0.91838   1.00
H2       0.64788    0.81821    0.90255   1.00
H2       0.60915    0.84496    0.92335   1.00
H2       0.46344    0.85311    0.87006   1.00
H2       0.47619    0.89774    0.89263   1.00
H2       0.49166    0.88784    0.84497   1.00
H2       0.50956    0.87099    0.94931   1.00
H2       0.49378    0.82407    0.93513   1.00
H2       0.54343    0.83280    0.94618   1.00
C4       1.02084    0.74698    0.74960   1.00
C4       0.97912    0.74741    0.75019   1.00
C3       1.04364    0.71558    0.76411   1.00
C3       0.95616    0.71818    0.76850   1.00
C3       1.04123    0.77991    0.73425   1.00
C3       0.95886    0.77860    0.73143   1.00
C2       1.10512    0.74917    0.74913   1.00
C2       0.89488    0.75083    0.75087   1.00
C3       1.08462    0.71671    0.76410   1.00
C3       0.91519    0.71962    0.76853   1.00
C3       1.08258    0.78017    0.73383   1.00
C3       0.91762    0.78039    0.73324   1.00
H1       1.03115    0.69090    0.77499   1.00
H1       0.96852    0.69510    0.78257   1.00
C5       1.02020    0.81227    0.71926   1.00
C5       0.97980    0.80803    0.71128   1.00
H1       1.09955    0.69325    0.77524   1.00
H1       0.90010    0.69749    0.78194   1.00
H1       1.09680    0.80351    0.72174   1.00
H1       0.90368    0.80418    0.72184   1.00
O3       1.03961    0.84640    0.71058   1.00
O3       0.96099    0.83385    0.68665   1.00
Si1      1.04247    0.88100    0.74322   1.00
Si1      0.95279    0.82082    0.64159   1.00
C6       1.07538    0.91123    0.71759   1.00
C6       0.99598    0.90276    0.74669   1.00
C6       1.06253    0.86520    0.78796   1.00
C6       0.96693    0.77342    0.62691   1.00
C6       0.90198    0.82560    0.63717   1.00
C6       0.97477    0.85607    0.61132   1.00
C6       1.11194    0.89032    0.69972   1.00
H2       1.05791    0.92050    0.69259   1.00
C6       1.09147    0.94983    0.73631   1.00
H2       0.98358    0.89639    0.71807   1.00
C6       0.96634    0.88592    0.77706   1.00
C6       0.99336    0.94812    0.75137   1.00
H2       1.08831    0.84902    0.77842   1.00
C6       1.07772    0.89741    0.81665   1.00
C6       1.03849    0.83677    0.81476   1.00
C6       1.01071    0.76156    0.63192   1.00
C6       0.94225    0.73736    0.64033   1.00
H2       0.96212    0.77441    0.59544   1.00
H2       0.89051    0.80189    0.65506   1.00
C6       0.88378    0.86377    0.65450   1.00
C6       0.88393    0.82028    0.59559   1.00
H2       0.95375    0.88001    0.61081   1.00
C6       1.01336    0.87463    0.62668   1.00
C6       0.98244    0.84513    0.56761   1.00
H2       1.10346    0.86621    0.68067   1.00
H2       1.13090    0.87865    0.72256   1.00
H2       1.12917    0.91040    0.68190   1.00
H2       1.09608    0.97185    0.71368   1.00
H2       1.07178    0.96229    0.75783   1.00
H2       1.11964    0.94551    0.75058   1.00
H2       0.93672    0.89598    0.77071   1.00
H2       0.96532    0.85420    0.77643   1.00
H2       0.97352    0.89534    0.80663   1.00
H2       1.00862    0.96315    0.72780   1.00
H2       0.96308    0.95818    0.75016   1.00
H2       1.00550    0.95753    0.77930   1.00
H2       1.05514    0.91911    0.82258   1.00
H2       1.08708    0.88515    0.84461   1.00
H2       1.10332    0.91206    0.80504   1.00
H2       1.01902    0.85248    0.83447   1.00
H2       1.02068    0.81625    0.79862   1.00
H2       1.05828    0.81951    0.83291   1.00
H2       1.01688    0.75152    0.66144   1.00
H2       1.01809    0.73758    0.61220   1.00
H2       1.03048    0.78549    0.62523   1.00
H2       0.95125    0.71109    0.62457   1.00
H2       0.94574    0.73120    0.67127   1.00
H2       0.91122    0.74114    0.63434   1.00
H2       0.85202    0.86110    0.65640   1.00
H2       0.89435    0.86932    0.68407   1.00
H2       0.89035    0.88930    0.63665   1.00
H2       0.89416    0.79356    0.58162   1.00
H2       0.85212    0.81821    0.59745   1.00
H2       0.89085    0.84496    0.57665   1.00
H2       1.03656    0.85311    0.62994   1.00
H2       1.02381    0.89774    0.60737   1.00
H2       1.00834    0.88784    0.65503   1.00
H2       0.99044    0.87099    0.55069   1.00
H2       1.00622    0.82407    0.56487   1.00
H2       0.95657    0.83280    0.55382   1.00
C4       0.75040    0.47916    0.74698   1.00
C4       0.74981    0.52088    0.74741   1.00
C3       0.73589    0.45636    0.71558   1.00
C3       0.73150    0.54384    0.71818   1.00
C3       0.76575    0.45877    0.77991   1.00
C3       0.76857    0.54114    0.77860   1.00
C2       0.75087    0.39488    0.74917   1.00
C2       0.74913    0.60512    0.75083   1.00
C3       0.73590    0.41538    0.71671   1.00
C3       0.73147    0.58481    0.71962   1.00
C3       0.76617    0.41742    0.78017   1.00
C3       0.76676    0.58238    0.78039   1.00
H1       0.72501    0.46885    0.69090   1.00
H1       0.71743    0.53148    0.69510   1.00
C5       0.78074    0.47980    0.81227   1.00
C5       0.78872    0.52020    0.80803   1.00
H1       0.72476    0.40045    0.69325   1.00
H1       0.71806    0.59990    0.69749   1.00
H1       0.77826    0.40320    0.80351   1.00
H1       0.77816    0.59632    0.80418   1.00
O3       0.78942    0.46039    0.84640   1.00
O3       0.81335    0.53901    0.83385   1.00
Si1      0.75678    0.45753    0.88100   1.00
Si1      0.85841    0.54721    0.82082   1.00
C6       0.78241    0.42462    0.91123   1.00
C6       0.75331    0.50402    0.90276   1.00
C6       0.71204    0.43747    0.86520   1.00
C6       0.87309    0.53307    0.77342   1.00
C6       0.86283    0.59802    0.82560   1.00
C6       0.88868    0.52523    0.85607   1.00
C6       0.80028    0.38806    0.89032   1.00
H2       0.80741    0.44209    0.92050   1.00
C6       0.76369    0.40853    0.94983   1.00
H2       0.78193    0.51642    0.89639   1.00
C6       0.72294    0.53366    0.88592   1.00
C6       0.74863    0.50664    0.94812   1.00
H2       0.72158    0.41169    0.84902   1.00
C6       0.68335    0.42228    0.89741   1.00
C6       0.68524    0.46151    0.83677   1.00
C6       0.86808    0.48929    0.76156   1.00
C6       0.85967    0.55775    0.73736   1.00
H2       0.90456    0.53788    0.77441   1.00
H2       0.84494    0.60949    0.80189   1.00
C6       0.84550    0.61622    0.86377   1.00
C6       0.90441    0.61607    0.82028   1.00
H2       0.88919    0.54625    0.88001   1.00
C6       0.87332    0.48664    0.87463   1.00
C6       0.93239    0.51756    0.84513   1.00
H2       0.81933    0.39654    0.86621   1.00
H2       0.77744    0.36910    0.87865   1.00
H2       0.81810    0.37083    0.91040   1.00
H2       0.78632    0.40392    0.97185   1.00
H2       0.74217    0.42822    0.96229   1.00
H2       0.74942    0.38036    0.94551   1.00
H2       0.72929    0.56328    0.89598   1.00
H2       0.72357    0.53468    0.85420   1.00
H2       0.69337    0.52648    0.89534   1.00
H2       0.77220    0.49138    0.96315   1.00
H2       0.74984    0.53692    0.95818   1.00
H2       0.72070    0.49450    0.95753   1.00
H2       0.67742    0.44486    0.91911   1.00
H2       0.65539    0.41292    0.88515   1.00
H2       0.69496    0.39668    0.91206   1.00
H2       0.66553    0.48098    0.85248   1.00
H2       0.70138    0.47932    0.81625   1.00
H2       0.66709    0.44172    0.81951   1.00
H2       0.83856    0.48312    0.75152   1.00
H2       0.88780    0.48191    0.73758   1.00
H2       0.87477    0.46952    0.78549   1.00
H2       0.87543    0.54875    0.71109   1.00
H2       0.82873    0.55426    0.73120   1.00
H2       0.86566    0.58878    0.74114   1.00
H2       0.84360    0.64798    0.86110   1.00
H2       0.81593    0.60565    0.86932   1.00
H2       0.86335    0.60965    0.88930   1.00
H2       0.91838    0.60584    0.79356   1.00
H2       0.90255    0.64788    0.81821   1.00
H2       0.92335    0.60915    0.84496   1.00
H2       0.87006    0.46344    0.85311   1.00
H2       0.89263    0.47619    0.89774   1.00
H2       0.84497    0.49166    0.88784   1.00
H2       0.94931    0.50956    0.87099   1.00
H2       0.93513    0.49378    0.82407   1.00
H2       0.94618    0.54343    0.83280   1.00
C4       0.74698    0.75040    0.47916   1.00
C4       0.74741    0.74981    0.52088   1.00
C3       0.71558    0.73589    0.45636   1.00
C3       0.71818    0.73150    0.54384   1.00
C3       0.77991    0.76575    0.45877   1.00
C3       0.77860    0.76857    0.54114   1.00
C2       0.74917    0.75087    0.39488   1.00
C2       0.75083    0.74913    0.60512   1.00
C3       0.71671    0.73590    0.41538   1.00
C3       0.71962    0.73147    0.58481   1.00
C3       0.78017    0.76617    0.41742   1.00
C3       0.78039    0.76676    0.58238   1.00
H1       0.69090    0.72501    0.46885   1.00
H1       0.69510    0.71743    0.53148   1.00
C5       0.81227    0.78074    0.47980   1.00
C5       0.80803    0.78872    0.52020   1.00
H1       0.69325    0.72476    0.40045   1.00
H1       0.69749    0.71806    0.59990   1.00
H1       0.80351    0.77826    0.40320   1.00
H1       0.80418    0.77816    0.59632   1.00
O3       0.84640    0.78942    0.46039   1.00
O3       0.83385    0.81335    0.53901   1.00
Si1      0.88100    0.75678    0.45753   1.00
Si1      0.82082    0.85841    0.54721   1.00
C6       0.91123    0.78241    0.42462   1.00
C6       0.90276    0.75331    0.50402   1.00
C6       0.86520    0.71204    0.43747   1.00
C6       0.77342    0.87309    0.53307   1.00
C6       0.82560    0.86283    0.59802   1.00
C6       0.85607    0.88868    0.52523   1.00
C6       0.89032    0.80028    0.38806   1.00
H2       0.92050    0.80741    0.44209   1.00
C6       0.94983    0.76369    0.40853   1.00
H2       0.89639    0.78193    0.51642   1.00
C6       0.88592    0.72294    0.53366   1.00
C6       0.94812    0.74863    0.50664   1.00
H2       0.84902    0.72158    0.41169   1.00
C6       0.89741    0.68335    0.42228   1.00
C6       0.83677    0.68524    0.46151   1.00
C6       0.76156    0.86808    0.48929   1.00
C6       0.73736    0.85967    0.55775   1.00
H2       0.77441    0.90456    0.53788   1.00
H2       0.80189    0.84494    0.60949   1.00
C6       0.86377    0.84550    0.61622   1.00
C6       0.82028    0.90441    0.61607   1.00
H2       0.88001    0.88919    0.54625   1.00
C6       0.87463    0.87332    0.48664   1.00
C6       0.84513    0.93239    0.51756   1.00
H2       0.86621    0.81933    0.39654   1.00
H2       0.87865    0.77744    0.36910   1.00
H2       0.91040    0.81810    0.37083   1.00
H2       0.97185    0.78632    0.40392   1.00
H2       0.96229    0.74217    0.42822   1.00
H2       0.94551    0.74942    0.38036   1.00
H2       0.89598    0.72929    0.56328   1.00
H2       0.85420    0.72357    0.53468   1.00
H2       0.89534    0.69337    0.52648   1.00
H2       0.96315    0.77220    0.49138   1.00
H2       0.95818    0.74984    0.53692   1.00
H2       0.95753    0.72070    0.49450   1.00
H2       0.91911    0.67742    0.44486   1.00
H2       0.88515    0.65539    0.41292   1.00
H2       0.91206    0.69496    0.39668   1.00
H2       0.85248    0.66553    0.48098   1.00
H2       0.81625    0.70138    0.47932   1.00
H2       0.81951    0.66709    0.44172   1.00
H2       0.75152    0.83856    0.48312   1.00
H2       0.73758    0.88780    0.48191   1.00
H2       0.78549    0.87477    0.46952   1.00
H2       0.71109    0.87543    0.54875   1.00
H2       0.73120    0.82873    0.55426   1.00
H2       0.74114    0.86566    0.58878   1.00
H2       0.86110    0.84360    0.64798   1.00
H2       0.86932    0.81593    0.60565   1.00
H2       0.88930    0.86335    0.60965   1.00
H2       0.79356    0.91838    0.60584   1.00
H2       0.81821    0.90255    0.64788   1.00
H2       0.84496    0.92335    0.60915   1.00
H2       0.85311    0.87006    0.46344   1.00
H2       0.89774    0.89263    0.47619   1.00
H2       0.88784    0.84497    0.49166   1.00
H2       0.87099    0.94931    0.50956   1.00
H2       0.82407    0.93513    0.49378   1.00
H2       0.83280    0.94618    0.54343   1.00
C4       0.24698    0.24960    1.02084   1.00
C4       0.24741    0.25019    0.97912   1.00
C3       0.21558    0.26411    1.04364   1.00
C3       0.21818    0.26850    0.95616   1.00
C3       0.27991    0.23425    1.04123   1.00
C3       0.27860    0.23143    0.95886   1.00
C2       0.24917    0.24913    1.10512   1.00
C2       0.25083    0.25087    0.89488   1.00
C3       0.21671    0.26410    1.08462   1.00
C3       0.21962    0.26853    0.91519   1.00
C3       0.28017    0.23383    1.08258   1.00
C3       0.28039    0.23324    0.91762   1.00
H1       0.19090    0.27499    1.03115   1.00
H1       0.19510    0.28257    0.96852   1.00
C5       0.31227    0.21926    1.02020   1.00
C5       0.30803    0.21128    0.97980   1.00
H1       0.19325    0.27524    1.09955   1.00
H1       0.19749    0.28194    0.90010   1.00
H1       0.30351    0.22174    1.09680   1.00
H1       0.30418    0.22184    0.90368   1.00
O3       0.34640    0.21058    1.03961   1.00
O3       0.33385    0.18665    0.96099   1.00
Si1      0.38100    0.24322    1.04247   1.00
Si1      0.32082    0.14159    0.95279   1.00
C6       0.41123    0.21759    1.07538   1.00
C6       0.40276    0.24669    0.99598   1.00
C6       0.36520    0.28796    1.06253   1.00
C6       0.27342    0.12691    0.96693   1.00
C6       0.32560    0.13717    0.90198   1.00
C6       0.35607    0.11132    0.97477   1.00
C6       0.39032    0.19972    1.11194   1.00
H2       0.42050    0.19259    1.05791   1.00
C6       0.44983    0.23631    1.09147   1.00
H2       0.39639    0.21807    0.98358   1.00
C6       0.38592    0.27706    0.96634   1.00
C6       0.44812    0.25137    0.99336   1.00
H2       0.34902    0.27842    1.08831   1.00
C6       0.39741    0.31665    1.07772   1.00
C6       0.33677    0.31476    1.03849   1.00
C6       0.26156    0.13192    1.01071   1.00
C6       0.23736    0.14033    0.94225   1.00
H2       0.27441    0.09544    0.96212   1.00
H2       0.30189    0.15506    0.89051   1.00
C6       0.36377    0.15450    0.88378   1.00
C6       0.32028    0.09559    0.88393   1.00
H2       0.38001    0.11081    0.95375   1.00
C6       0.37463    0.12668    1.01336   1.00
C6       0.34513    0.06761    0.98244   1.00
H2       0.36621    0.18067    1.10346   1.00
H2       0.37865    0.22256    1.13090   1.00
H2       0.41040    0.18190    1.12917   1.00
H2       0.47185    0.21368    1.09608   1.00
H2       0.46229    0.25783    1.07178   1.00
H2       0.44551    0.25058    1.11964   1.00
H2       0.39598    0.27071    0.93672   1.00
H2       0.35420    0.27643    0.96532   1.00
H2       0.39534    0.30663    0.97352   1.00
H2       0.46315    0.22780    1.00862   1.00
H2       0.45818    0.25016    0.96308   1.00
H2       0.45753    0.27930    1.00550   1.00
H2       0.41911    0.32258    1.05514   1.00
H2       0.38515    0.34461    1.08708   1.00
H2       0.41206    0.30504    1.10332   1.00
H2       0.35248    0.33447    1.01902   1.00
H2       0.31625    0.29862    1.02068   1.00
H2       0.31951    0.33291    1.05828   1.00
H2       0.25152    0.16144    1.01688   1.00
H2       0.23758    0.11220    1.01809   1.00
H2       0.28549    0.12523    1.03048   1.00
H2       0.21109    0.12457    0.95125   1.00
H2       0.23120    0.17127    0.94574   1.00
H2       0.24114    0.13434    0.91122   1.00
H2       0.36110    0.15640    0.85202   1.00
H2       0.36932    0.18407    0.89435   1.00
H2       0.38930    0.13665    0.89035   1.00
H2       0.29356    0.08162    0.89416   1.00
H2       0.31821    0.09745    0.85212   1.00
H2       0.34496    0.07665    0.89085   1.00
H2       0.35311    0.12994    1.03656   1.00
H2       0.39774    0.10737    1.02381   1.00
H2       0.38784    0.15503    1.00834   1.00
H2       0.37099    0.05069    0.99044   1.00
H2       0.32407    0.06487    1.00622   1.00
H2       0.33280    0.05382    0.95657   1.00
C4       0.24960    0.52084    0.74698   1.00
C4       0.25019    0.47912    0.74741   1.00
C3       0.26411    0.54364    0.71558   1.00
C3       0.26850    0.45616    0.71818   1.00
C3       0.23425    0.54123    0.77991   1.00
C3       0.23143    0.45886    0.77860   1.00
C2       0.24913    0.60512    0.74917   1.00
C2       0.25087    0.39488    0.75083   1.00
C3       0.26410    0.58462    0.71671   1.00
C3       0.26853    0.41519    0.71962   1.00
C3       0.23383    0.58258    0.78017   1.00
C3       0.23324    0.41762    0.78039   1.00
H1       0.27499    0.53115    0.69090   1.00
H1       0.28257    0.46852    0.69510   1.00
C5       0.21926    0.52020    0.81227   1.00
C5       0.21128    0.47980    0.80803   1.00
H1       0.27524    0.59955    0.69325   1.00
H1       0.28194    0.40010    0.69749   1.00
H1       0.22174    0.59680    0.80351   1.00
H1       0.22184    0.40368    0.80418   1.00
O3       0.21058    0.53961    0.84640   1.00
O3       0.18665    0.46099    0.83385   1.00
Si1      0.24322    0.54247    0.88100   1.00
Si1      0.14159    0.45279    0.82082   1.00
C6       0.21759    0.57538    0.91123   1.00
C6       0.24669    0.49598    0.90276   1.00
C6       0.28796    0.56253    0.86520   1.00
C6       0.12691    0.46693    0.77342   1.00
C6       0.13717    0.40198    0.82560   1.00
C6       0.11132    0.47477    0.85607   1.00
C6       0.19972    0.61194    0.89032   1.00
H2       0.19259    0.55791    0.92050   1.00
C6       0.23631    0.59147    0.94983   1.00
H2       0.21807    0.48358    0.89639   1.00
C6       0.27706    0.46634    0.88592   1.00
C6       0.25137    0.49336    0.94812   1.00
H2       0.27842    0.58831    0.84902   1.00
C6       0.31665    0.57772    0.89741   1.00
C6       0.31476    0.53849    0.83677   1.00
C6       0.13192    0.51071    0.76156   1.00
C6       0.14033    0.44225    0.73736   1.00
H2       0.09544    0.46212    0.77441   1.00
H2       0.15506    0.39051    0.80189   1.00
C6       0.15450    0.38378    0.86377   1.00
C6       0.09559    0.38393    0.82028   1.00
H2       0.11081    0.45375    0.88001   1.00
C6       0.12668    0.51336    0.87463   1.00
C6       0.06761    0.48244    0.84513   1.00
H2       0.18067    0.60346    0.86621   1.00
H2       0.22256    0.63090    0.87865   1.00
H2       0.18190    0.62917    0.91040   1.00
H2       0.21368    0.59608    0.97185   1.00
H2       0.25783    0.57178    0.96229   1.00
H2       0.25058    0.61964    0.94551   1.00
H2       0.27071    0.43672    0.89598   1.00
H2       0.27643    0.46532    0.85420   1.00
H2       0.30663    0.47352    0.89534   1.00
H2       0.22780    0.50862    0.96315   1.00
H2       0.25016    0.46308    0.95818   1.00
H2       0.27930    0.50550    0.95753   1.00
H2       0.32258    0.55514    0.91911   1.00
H2       0.34461    0.58708    0.88515   1.00
H2       0.30504    0.60332    0.91206   1.00
H2       0.33447    0.51902    0.85248   1.00
H2       0.29862    0.52068    0.81625   1.00
H2       0.33291    0.55828    0.81951   1.00
H2       0.16144    0.51688    0.75152   1.00
H2       0.11220    0.51809    0.73758   1.00
H2       0.12523    0.53048    0.78549   1.00
H2       0.12457    0.45125    0.71109   1.00
H2       0.17127    0.44574    0.73120   1.00
H2       0.13434    0.41122    0.74114   1.00
H2       0.15640    0.35202    0.86110   1.00
H2       0.18407    0.39435    0.86932   1.00
H2       0.13665    0.39035    0.88930   1.00
H2       0.08162    0.39416    0.79356   1.00
H2       0.09745    0.35212    0.81821   1.00
H2       0.07665    0.39085    0.84496   1.00
H2       0.12994    0.53656    0.85311   1.00
H2       0.10737    0.52381    0.89774   1.00
H2       0.15503    0.50834    0.88784   1.00
H2       0.05069    0.49044    0.87099   1.00
H2       0.06487    0.50622    0.82407   1.00
H2       0.05382    0.45657    0.83280   1.00
C4       -0.02084   0.24698    0.75040   1.00
C4       0.02088    0.24741    0.74981   1.00
C3       -0.04364   0.21558    0.73589   1.00
C3       0.04384    0.21818    0.73150   1.00
C3       -0.04123   0.27991    0.76575   1.00
C3       0.04114    0.27860    0.76857   1.00
C2       -0.10512   0.24917    0.75087   1.00
C2       0.10512    0.25083    0.74913   1.00
C3       -0.08462   0.21671    0.73590   1.00
C3       0.08481    0.21962    0.73147   1.00
C3       -0.08258   0.28017    0.76617   1.00
C3       0.08238    0.28039    0.76676   1.00
H1       -0.03115   0.19090    0.72501   1.00
H1       0.03148    0.19510    0.71743   1.00
C5       -0.02020   0.31227    0.78074   1.00
C5       0.02020    0.30803    0.78872   1.00
H1       -0.09955   0.19325    0.72476   1.00
H1       0.09990    0.19749    0.71806   1.00
H1       -0.09680   0.30351    0.77826   1.00
H1       0.09632    0.30418    0.77816   1.00
O3       -0.03961   0.34640    0.78942   1.00
O3       0.03901    0.33385    0.81335   1.00
Si1      -0.04247   0.38100    0.75678   1.00
Si1      0.04721    0.32082    0.85841   1.00
C6       -0.07538   0.41123    0.78241   1.00
C6       0.00402    0.40276    0.75331   1.00
C6       -0.06253   0.36520    0.71204   1.00
C6       0.03307    0.27342    0.87309   1.00
C6       0.09802    0.32560    0.86283   1.00
C6       0.02523    0.35607    0.88868   1.00
C6       -0.11194   0.39032    0.80028   1.00
H2       -0.05791   0.42050    0.80741   1.00
C6       -0.09147   0.44983    0.76369   1.00
H2       0.01642    0.39639    0.78193   1.00
C6       0.03366    0.38592    0.72294   1.00
C6       0.00664    0.44812    0.74863   1.00
H2       -0.08831   0.34902    0.72158   1.00
C6       -0.07772   0.39741    0.68335   1.00
C6       -0.03849   0.33677    0.68524   1.00
C6       -0.01071   0.26156    0.86808   1.00
C6       0.05775    0.23736    0.85967   1.00
H2       0.03788    0.27441    0.90456   1.00
H2       0.10949    0.30189    0.84494   1.00
C6       0.11622    0.36377    0.84550   1.00
C6       0.11607    0.32028    0.90441   1.00
H2       0.04625    0.38001    0.88919   1.00
C6       -0.01336   0.37463    0.87332   1.00
C6       0.01756    0.34513    0.93239   1.00
H2       -0.10346   0.36621    0.81933   1.00
H2       -0.13090   0.37865    0.77744   1.00
H2       -0.12917   0.41040    0.81810   1.00
H2       -0.09608   0.47185    0.78632   1.00
H2       -0.07178   0.46229    0.74217   1.00
H2       -0.11964   0.44551    0.74942   1.00
H2       0.06328    0.39598    0.72929   1.00
H2       0.03468    0.35420    0.72357   1.00
H2       0.02648    0.39534    0.69337   1.00
H2       -0.00862   0.46315    0.77220   1.00
H2       0.03692    0.45818    0.74984   1.00
H2       -0.00550   0.45753    0.72070   1.00
H2       -0.05514   0.41911    0.67742   1.00
H2       -0.08708   0.38515    0.65539   1.00
H2       -0.10332   0.41206    0.69496   1.00
H2       -0.01902   0.35248    0.66553   1.00
H2       -0.02068   0.31625    0.70138   1.00
H2       -0.05828   0.31951    0.66709   1.00
H2       -0.01688   0.25152    0.83856   1.00
H2       -0.01809   0.23758    0.88780   1.00
H2       -0.03048   0.28549    0.87477   1.00
H2       0.04875    0.21109    0.87543   1.00
H2       0.05426    0.23120    0.82873   1.00
H2       0.08878    0.24114    0.86566   1.00
H2       0.14798    0.36110    0.84360   1.00
H2       0.10565    0.36932    0.81593   1.00
H2       0.10965    0.38930    0.86335   1.00
H2       0.10584    0.29356    0.91838   1.00
H2       0.14788    0.31821    0.90255   1.00
H2       0.10915    0.34496    0.92335   1.00
H2       -0.03656   0.35311    0.87006   1.00
H2       -0.02381   0.39774    0.89263   1.00
H2       -0.00834   0.38784    0.84497   1.00
H2       0.00956    0.37099    0.94931   1.00
H2       -0.00622   0.32407    0.93513   1.00
H2       0.04343    0.33280    0.94618   1.00
C4       0.52084    0.24698    0.74960   1.00
C4       0.47912    0.24741    0.75019   1.00
C3       0.54364    0.21558    0.76411   1.00
C3       0.45616    0.21818    0.76850   1.00
C3       0.54123    0.27991    0.73425   1.00
C3       0.45886    0.27860    0.73143   1.00
C2       0.60512    0.24917    0.74913   1.00
C2       0.39488    0.25083    0.75087   1.00
C3       0.58462    0.21671    0.76410   1.00
C3       0.41519    0.21962    0.76853   1.00
C3       0.58258    0.28017    0.73383   1.00
C3       0.41762    0.28039    0.73324   1.00
H1       0.53115    0.19090    0.77499   1.00
H1       0.46852    0.19510    0.78257   1.00
C5       0.52020    0.31227    0.71926   1.00
C5       0.47980    0.30803    0.71128   1.00
H1       0.59955    0.19325    0.77524   1.00
H1       0.40010    0.19749    0.78194   1.00
H1       0.59680    0.30351    0.72174   1.00
H1       0.40368    0.30418    0.72184   1.00
O3       0.53961    0.34640    0.71058   1.00
O3       0.46099    0.33385    0.68665   1.00
Si1      0.54247    0.38100    0.74322   1.00
Si1      0.45279    0.32082    0.64159   1.00
C6       0.57538    0.41123    0.71759   1.00
C6       0.49598    0.40276    0.74669   1.00
C6       0.56253    0.36520    0.78796   1.00
C6       0.46693    0.27342    0.62691   1.00
C6       0.40198    0.32560    0.63717   1.00
C6       0.47477    0.35607    0.61132   1.00
C6       0.61194    0.39032    0.69972   1.00
H2       0.55791    0.42050    0.69259   1.00
C6       0.59147    0.44983    0.73631   1.00
H2       0.48358    0.39639    0.71807   1.00
C6       0.46634    0.38592    0.77706   1.00
C6       0.49336    0.44812    0.75137   1.00
H2       0.58831    0.34902    0.77842   1.00
C6       0.57772    0.39741    0.81665   1.00
C6       0.53849    0.33677    0.81476   1.00
C6       0.51071    0.26156    0.63192   1.00
C6       0.44225    0.23736    0.64033   1.00
H2       0.46212    0.27441    0.59544   1.00
H2       0.39051    0.30189    0.65506   1.00
C6       0.38378    0.36377    0.65450   1.00
C6       0.38393    0.32028    0.59559   1.00
H2       0.45375    0.38001    0.61081   1.00
C6       0.51336    0.37463    0.62668   1.00
C6       0.48244    0.34513    0.56761   1.00
H2       0.60346    0.36621    0.68067   1.00
H2       0.63090    0.37865    0.72256   1.00
H2       0.62917    0.41040    0.68190   1.00
H2       0.59608    0.47185    0.71368   1.00
H2       0.57178    0.46229    0.75783   1.00
H2       0.61964    0.44551    0.75058   1.00
H2       0.43672    0.39598    0.77071   1.00
H2       0.46532    0.35420    0.77643   1.00
H2       0.47352    0.39534    0.80663   1.00
H2       0.50862    0.46315    0.72780   1.00
H2       0.46308    0.45818    0.75016   1.00
H2       0.50550    0.45753    0.77930   1.00
H2       0.55514    0.41911    0.82258   1.00
H2       0.58708    0.38515    0.84461   1.00
H2       0.60332    0.41206    0.80504   1.00
H2       0.51902    0.35248    0.83447   1.00
H2       0.52068    0.31625    0.79862   1.00
H2       0.55828    0.31951    0.83291   1.00
H2       0.51688    0.25152    0.66144   1.00
H2       0.51809    0.23758    0.61220   1.00
H2       0.53048    0.28549    0.62523   1.00
H2       0.45125    0.21109    0.62457   1.00
H2       0.44574    0.23120    0.67127   1.00
H2       0.41122    0.24114    0.63434   1.00
H2       0.35202    0.36110    0.65640   1.00
H2       0.39435    0.36932    0.68407   1.00
H2       0.39035    0.38930    0.63665   1.00
H2       0.39416    0.29356    0.58162   1.00
H2       0.35212    0.31821    0.59745   1.00
H2       0.39085    0.34496    0.57665   1.00
H2       0.53656    0.35311    0.62994   1.00
H2       0.52381    0.39774    0.60737   1.00
H2       0.50834    0.38784    0.65503   1.00
H2       0.49044    0.37099    0.55069   1.00
H2       0.50622    0.32407    0.56487   1.00
H2       0.45657    0.33280    0.55382   1.00
C4       0.25040    -0.02084   0.74698   1.00
C4       0.24981    0.02088    0.74741   1.00
C3       0.23589    -0.04364   0.71558   1.00
C3       0.23150    0.04384    0.71818   1.00
C3       0.26575    -0.04123   0.77991   1.00
C3       0.26857    0.04114    0.77860   1.00
C2       0.25087    -0.10512   0.74917   1.00
C2       0.24913    0.10512    0.75083   1.00
C3       0.23590    -0.08462   0.71671   1.00
C3       0.23147    0.08481    0.71962   1.00
C3       0.26617    -0.08258   0.78017   1.00
C3       0.26676    0.08238    0.78039   1.00
H1       0.22501    -0.03115   0.69090   1.00
H1       0.21743    0.03148    0.69510   1.00
C5       0.28074    -0.02020   0.81227   1.00
C5       0.28872    0.02020    0.80803   1.00
H1       0.22476    -0.09955   0.69325   1.00
H1       0.21806    0.09990    0.69749   1.00
H1       0.27826    -0.09680   0.80351   1.00
H1       0.27816    0.09632    0.80418   1.00
O3       0.28942    -0.03961   0.84640   1.00
O3       0.31335    0.03901    0.83385   1.00
Si1      0.25678    -0.04247   0.88100   1.00
Si1      0.35841    0.04721    0.82082   1.00
C6       0.28241    -0.07538   0.91123   1.00
C6       0.25331    0.00402    0.90276   1.00
C6       0.21204    -0.06253   0.86520   1.00
C6       0.37309    0.03307    0.77342   1.00
C6       0.36283    0.09802    0.82560   1.00
C6       0.38868    0.02523    0.85607   1.00
C6       0.30028    -0.11194   0.89032   1.00
H2       0.30741    -0.05791   0.92050   1.00
C6       0.26369    -0.09147   0.94983   1.00
H2       0.28193    0.01642    0.89639   1.00
C6       0.22294    0.03366    0.88592   1.00
C6       0.24863    0.00664    0.94812   1.00
H2       0.22158    -0.08831   0.84902   1.00
C6       0.18335    -0.07772   0.89741   1.00
C6       0.18524    -0.03849   0.83677   1.00
C6       0.36808    -0.01071   0.76156   1.00
C6       0.35967    0.05775    0.73736   1.00
H2       0.40456    0.03788    0.77441   1.00
H2       0.34494    0.10949    0.80189   1.00
C6       0.34550    0.11622    0.86377   1.00
C6       0.40441    0.11607    0.82028   1.00
H2       0.38919    0.04625    0.88001   1.00
C6       0.37332    -0.01336   0.87463   1.00
C6       0.43239    0.01756    0.84513   1.00
H2       0.31933    -0.10346   0.86621   1.00
H2       0.27744    -0.13090   0.87865   1.00
H2       0.31810    -0.12917   0.91040   1.00
H2       0.28632    -0.09608   0.97185   1.00
H2       0.24217    -0.07178   0.96229   1.00
H2       0.24942    -0.11964   0.94551   1.00
H2       0.22929    0.06328    0.89598   1.00
H2       0.22357    0.03468    0.85420   1.00
H2       0.19337    0.02648    0.89534   1.00
H2       0.27220    -0.00862   0.96315   1.00
H2       0.24984    0.03692    0.95818   1.00
H2       0.22070    -0.00550   0.95753   1.00
H2       0.17742    -0.05514   0.91911   1.00
H2       0.15539    -0.08708   0.88515   1.00
H2       0.19496    -0.10332   0.91206   1.00
H2       0.16553    -0.01902   0.85248   1.00
H2       0.20138    -0.02068   0.81625   1.00
H2       0.16709    -0.05828   0.81951   1.00
H2       0.33856    -0.01688   0.75152   1.00
H2       0.38780    -0.01809   0.73758   1.00
H2       0.37477    -0.03048   0.78549   1.00
H2       0.37543    0.04875    0.71109   1.00
H2       0.32873    0.05426    0.73120   1.00
H2       0.36566    0.08878    0.74114   1.00
H2       0.34360    0.14798    0.86110   1.00
H2       0.31593    0.10565    0.86932   1.00
H2       0.36335    0.10965    0.88930   1.00
H2       0.41838    0.10584    0.79356   1.00
H2       0.40255    0.14788    0.81821   1.00
H2       0.42335    0.10915    0.84496   1.00
H2       0.37006    -0.03656   0.85311   1.00
H2       0.39263    -0.02381   0.89774   1.00
H2       0.34497    -0.00834   0.88784   1.00
H2       0.44931    0.00956    0.87099   1.00
H2       0.43513    -0.00622   0.82407   1.00
H2       0.44618    0.04343    0.83280   1.00
C4       0.24698    0.25040    0.47916   1.00
C4       0.24741    0.24981    0.52088   1.00
C3       0.21558    0.23589    0.45636   1.00
C3       0.21818    0.23150    0.54384   1.00
C3       0.27991    0.26575    0.45877   1.00
C3       0.27860    0.26857    0.54114   1.00
C2       0.24917    0.25087    0.39488   1.00
C2       0.25083    0.24913    0.60512   1.00
C3       0.21671    0.23590    0.41538   1.00
C3       0.21962    0.23147    0.58481   1.00
C3       0.28017    0.26617    0.41742   1.00
C3       0.28039    0.26676    0.58238   1.00
H1       0.19090    0.22501    0.46885   1.00
H1       0.19510    0.21743    0.53148   1.00
C5       0.31227    0.28074    0.47980   1.00
C5       0.30803    0.28872    0.52020   1.00
H1       0.19325    0.22476    0.40045   1.00
H1       0.19749    0.21806    0.59990   1.00
H1       0.30351    0.27826    0.40320   1.00
H1       0.30418    0.27816    0.59632   1.00
O3       0.34640    0.28942    0.46039   1.00
O3       0.33385    0.31335    0.53901   1.00
Si1      0.38100    0.25678    0.45753   1.00
Si1      0.32082    0.35841    0.54721   1.00
C6       0.41123    0.28241    0.42462   1.00
C6       0.40276    0.25331    0.50402   1.00
C6       0.36520    0.21204    0.43747   1.00
C6       0.27342    0.37309    0.53307   1.00
C6       0.32560    0.36283    0.59802   1.00
C6       0.35607    0.38868    0.52523   1.00
C6       0.39032    0.30028    0.38806   1.00
H2       0.42050    0.30741    0.44209   1.00
C6       0.44983    0.26369    0.40853   1.00
H2       0.39639    0.28193    0.51642   1.00
C6       0.38592    0.22294    0.53366   1.00
C6       0.44812    0.24863    0.50664   1.00
H2       0.34902    0.22158    0.41169   1.00
C6       0.39741    0.18335    0.42228   1.00
C6       0.33677    0.18524    0.46151   1.00
C6       0.26156    0.36808    0.48929   1.00
C6       0.23736    0.35967    0.55775   1.00
H2       0.27441    0.40456    0.53788   1.00
H2       0.30189    0.34494    0.60949   1.00
C6       0.36377    0.34550    0.61622   1.00
C6       0.32028    0.40441    0.61607   1.00
H2       0.38001    0.38919    0.54625   1.00
C6       0.37463    0.37332    0.48664   1.00
C6       0.34513    0.43239    0.51756   1.00
H2       0.36621    0.31933    0.39654   1.00
H2       0.37865    0.27744    0.36910   1.00
H2       0.41040    0.31810    0.37083   1.00
H2       0.47185    0.28632    0.40392   1.00
H2       0.46229    0.24217    0.42822   1.00
H2       0.44551    0.24942    0.38036   1.00
H2       0.39598    0.22929    0.56328   1.00
H2       0.35420    0.22357    0.53468   1.00
H2       0.39534    0.19337    0.52648   1.00
H2       0.46315    0.27220    0.49138   1.00
H2       0.45818    0.24984    0.53692   1.00
H2       0.45753    0.22070    0.49450   1.00
H2       0.41911    0.17742    0.44486   1.00
H2       0.38515    0.15539    0.41292   1.00
H2       0.41206    0.19496    0.39668   1.00
H2       0.35248    0.16553    0.48098   1.00
H2       0.31625    0.20138    0.47932   1.00
H2       0.31951    0.16709    0.44172   1.00
H2       0.25152    0.33856    0.48312   1.00
H2       0.23758    0.38780    0.48191   1.00
H2       0.28549    0.37477    0.46952   1.00
H2       0.21109    0.37543    0.54875   1.00
H2       0.23120    0.32873    0.55426   1.00
H2       0.24114    0.36566    0.58878   1.00
H2       0.36110    0.34360    0.64798   1.00
H2       0.36932    0.31593    0.60565   1.00
H2       0.38930    0.36335    0.60965   1.00
H2       0.29356    0.41838    0.60584   1.00
H2       0.31821    0.40255    0.64788   1.00
H2       0.34496    0.42335    0.60915   1.00
H2       0.35311    0.37006    0.46344   1.00
H2       0.39774    0.39263    0.47619   1.00
H2       0.38784    0.34497    0.49166   1.00
H2       0.37099    0.44931    0.50956   1.00
H2       0.32407    0.43513    0.49378   1.00
H2       0.33280    0.44618    0.54343   1.00
C4       0.24698    0.74960    0.52084   1.00
C4       0.24741    0.75019    0.47912   1.00
C3       0.21558    0.76411    0.54364   1.00
C3       0.21818    0.76850    0.45616   1.00
C3       0.27991    0.73425    0.54123   1.00
C3       0.27860    0.73143    0.45886   1.00
C2       0.24917    0.74913    0.60512   1.00
C2       0.25083    0.75087    0.39488   1.00
C3       0.21671    0.76410    0.58462   1.00
C3       0.21962    0.76853    0.41519   1.00
C3       0.28017    0.73383    0.58258   1.00
C3       0.28039    0.73324    0.41762   1.00
H1       0.19090    0.77499    0.53115   1.00
H1       0.19510    0.78257    0.46852   1.00
C5       0.31227    0.71926    0.52020   1.00
C5       0.30803    0.71128    0.47980   1.00
H1       0.19325    0.77524    0.59955   1.00
H1       0.19749    0.78194    0.40010   1.00
H1       0.30351    0.72174    0.59680   1.00
H1       0.30418    0.72184    0.40368   1.00
O3       0.34640    0.71058    0.53961   1.00
O3       0.33385    0.68665    0.46099   1.00
Si1      0.38100    0.74322    0.54247   1.00
Si1      0.32082    0.64159    0.45279   1.00
C6       0.41123    0.71759    0.57538   1.00
C6       0.40276    0.74669    0.49598   1.00
C6       0.36520    0.78796    0.56253   1.00
C6       0.27342    0.62691    0.46693   1.00
C6       0.32560    0.63717    0.40198   1.00
C6       0.35607    0.61132    0.47477   1.00
C6       0.39032    0.69972    0.61194   1.00
H2       0.42050    0.69259    0.55791   1.00
C6       0.44983    0.73631    0.59147   1.00
H2       0.39639    0.71807    0.48358   1.00
C6       0.38592    0.77706    0.46634   1.00
C6       0.44812    0.75137    0.49336   1.00
H2       0.34902    0.77842    0.58831   1.00
C6       0.39741    0.81665    0.57772   1.00
C6       0.33677    0.81476    0.53849   1.00
C6       0.26156    0.63192    0.51071   1.00
C6       0.23736    0.64033    0.44225   1.00
H2       0.27441    0.59544    0.46212   1.00
H2       0.30189    0.65506    0.39051   1.00
C6       0.36377    0.65450    0.38378   1.00
C6       0.32028    0.59559    0.38393   1.00
H2       0.38001    0.61081    0.45375   1.00
C6       0.37463    0.62668    0.51336   1.00
C6       0.34513    0.56761    0.48244   1.00
H2       0.36621    0.68067    0.60346   1.00
H2       0.37865    0.72256    0.63090   1.00
H2       0.41040    0.68190    0.62917   1.00
H2       0.47185    0.71368    0.59608   1.00
H2       0.46229    0.75783    0.57178   1.00
H2       0.44551    0.75058    0.61964   1.00
H2       0.39598    0.77071    0.43672   1.00
H2       0.35420    0.77643    0.46532   1.00
H2       0.39534    0.80663    0.47352   1.00
H2       0.46315    0.72780    0.50862   1.00
H2       0.45818    0.75016    0.46308   1.00
H2       0.45753    0.77930    0.50550   1.00
H2       0.41911    0.82258    0.55514   1.00
H2       0.38515    0.84461    0.58708   1.00
H2       0.41206    0.80504    0.60332   1.00
H2       0.35248    0.83447    0.51902   1.00
H2       0.31625    0.79862    0.52068   1.00
H2       0.31951    0.83291    0.55828   1.00
H2       0.25152    0.66144    0.51688   1.00
H2       0.23758    0.61220    0.51809   1.00
H2       0.28549    0.62523    0.53048   1.00
H2       0.21109    0.62457    0.45125   1.00
H2       0.23120    0.67127    0.44574   1.00
H2       0.24114    0.63434    0.41122   1.00
H2       0.36110    0.65640    0.35202   1.00
H2       0.36932    0.68407    0.39435   1.00
H2       0.38930    0.63665    0.39035   1.00
H2       0.29356    0.58162    0.39416   1.00
H2       0.31821    0.59745    0.35212   1.00
H2       0.34496    0.57665    0.39085   1.00
H2       0.35311    0.62994    0.53656   1.00
H2       0.39774    0.60737    0.52381   1.00
H2       0.38784    0.65503    0.50834   1.00
H2       0.37099    0.55069    0.49044   1.00
H2       0.32407    0.56487    0.50622   1.00
H2       0.33280    0.55382    0.45657   1.00
C4       0.24960    1.02084    0.24698   1.00
C4       0.25019    0.97912    0.24741   1.00
C3       0.26411    1.04364    0.21558   1.00
C3       0.26850    0.95616    0.21818   1.00
C3       0.23425    1.04123    0.27991   1.00
C3       0.23143    0.95886    0.27860   1.00
C2       0.24913    1.10512    0.24917   1.00
C2       0.25087    0.89488    0.25083   1.00
C3       0.26410    1.08462    0.21671   1.00
C3       0.26853    0.91519    0.21962   1.00
C3       0.23383    1.08258    0.28017   1.00
C3       0.23324    0.91762    0.28039   1.00
H1       0.27499    1.03115    0.19090   1.00
H1       0.28257    0.96852    0.19510   1.00
C5       0.21926    1.02020    0.31227   1.00
C5       0.21128    0.97980    0.30803   1.00
H1       0.27524    1.09955    0.19325   1.00
H1       0.28194    0.90010    0.19749   1.00
H1       0.22174    1.09680    0.30351   1.00
H1       0.22184    0.90368    0.30418   1.00
O3       0.21058    1.03961    0.34640   1.00
O3       0.18665    0.96099    0.33385   1.00
Si1      0.24322    1.04247    0.38100   1.00
Si1      0.14159    0.95279    0.32082   1.00
C6       0.21759    1.07538    0.41123   1.00
C6       0.24669    0.99598    0.40276   1.00
C6       0.28796    1.06253    0.36520   1.00
C6       0.12691    0.96693    0.27342   1.00
C6       0.13717    0.90198    0.32560   1.00
C6       0.11132    0.97477    0.35607   1.00
C6       0.19972    1.11194    0.39032   1.00
H2       0.19259    1.05791    0.42050   1.00
C6       0.23631    1.09147    0.44983   1.00
H2       0.21807    0.98358    0.39639   1.00
C6       0.27706    0.96634    0.38592   1.00
C6       0.25137    0.99336    0.44812   1.00
H2       0.27842    1.08831    0.34902   1.00
C6       0.31665    1.07772    0.39741   1.00
C6       0.31476    1.03849    0.33677   1.00
C6       0.13192    1.01071    0.26156   1.00
C6       0.14033    0.94225    0.23736   1.00
H2       0.09544    0.96212    0.27441   1.00
H2       0.15506    0.89051    0.30189   1.00
C6       0.15450    0.88378    0.36377   1.00
C6       0.09559    0.88393    0.32028   1.00
H2       0.11081    0.95375    0.38001   1.00
C6       0.12668    1.01336    0.37463   1.00
C6       0.06761    0.98244    0.34513   1.00
H2       0.18067    1.10346    0.36621   1.00
H2       0.22256    1.13090    0.37865   1.00
H2       0.18190    1.12917    0.41040   1.00
H2       0.21368    1.09608    0.47185   1.00
H2       0.25783    1.07178    0.46229   1.00
H2       0.25058    1.11964    0.44551   1.00
H2       0.27071    0.93672    0.39598   1.00
H2       0.27643    0.96532    0.35420   1.00
H2       0.30663    0.97352    0.39534   1.00
H2       0.22780    1.00862    0.46315   1.00
H2       0.25016    0.96308    0.45818   1.00
H2       0.27930    1.00550    0.45753   1.00
H2       0.32258    1.05514    0.41911   1.00
H2       0.34461    1.08708    0.38515   1.00
H2       0.30504    1.10332    0.41206   1.00
H2       0.33447    1.01902    0.35248   1.00
H2       0.29862    1.02068    0.31625   1.00
H2       0.33291    1.05828    0.31951   1.00
H2       0.16144    1.01688    0.25152   1.00
H2       0.11220    1.01809    0.23758   1.00
H2       0.12523    1.03048    0.28549   1.00
H2       0.12457    0.95125    0.21109   1.00
H2       0.17127    0.94574    0.23120   1.00
H2       0.13434    0.91122    0.24114   1.00
H2       0.15640    0.85202    0.36110   1.00
H2       0.18407    0.89435    0.36932   1.00
H2       0.13665    0.89035    0.38930   1.00
H2       0.08162    0.89416    0.29356   1.00
H2       0.09745    0.85212    0.31821   1.00
H2       0.07665    0.89085    0.34496   1.00
H2       0.12994    1.03656    0.35311   1.00
H2       0.10737    1.02381    0.39774   1.00
H2       0.15503    1.00834    0.38784   1.00
H2       0.05069    0.99044    0.37099   1.00
H2       0.06487    1.00622    0.32407   1.00
H2       0.05382    0.95657    0.33280   1.00
C4       -0.02084   0.74698    0.25040   1.00
C4       0.02088    0.74741    0.24981   1.00
C3       -0.04364   0.71558    0.23589   1.00
C3       0.04384    0.71818    0.23150   1.00
C3       -0.04123   0.77991    0.26575   1.00
C3       0.04114    0.77860    0.26857   1.00
C2       -0.10512   0.74917    0.25087   1.00
C2       0.10512    0.75083    0.24913   1.00
C3       -0.08462   0.71671    0.23590   1.00
C3       0.08481    0.71962    0.23147   1.00
C3       -0.08258   0.78017    0.26617   1.00
C3       0.08238    0.78039    0.26676   1.00
H1       -0.03115   0.69090    0.22501   1.00
H1       0.03148    0.69510    0.21743   1.00
C5       -0.02020   0.81227    0.28074   1.00
C5       0.02020    0.80803    0.28872   1.00
H1       -0.09955   0.69325    0.22476   1.00
H1       0.09990    0.69749    0.21806   1.00
H1       -0.09680   0.80351    0.27826   1.00
H1       0.09632    0.80418    0.27816   1.00
O3       -0.03961   0.84640    0.28942   1.00
O3       0.03901    0.83385    0.31335   1.00
Si1      -0.04247   0.88100    0.25678   1.00
Si1      0.04721    0.82082    0.35841   1.00
C6       -0.07538   0.91123    0.28241   1.00
C6       0.00402    0.90276    0.25331   1.00
C6       -0.06253   0.86520    0.21204   1.00
C6       0.03307    0.77342    0.37309   1.00
C6       0.09802    0.82560    0.36283   1.00
C6       0.02523    0.85607    0.38868   1.00
C6       -0.11194   0.89032    0.30028   1.00
H2       -0.05791   0.92050    0.30741   1.00
C6       -0.09147   0.94983    0.26369   1.00
H2       0.01642    0.89639    0.28193   1.00
C6       0.03366    0.88592    0.22294   1.00
C6       0.00664    0.94812    0.24863   1.00
H2       -0.08831   0.84902    0.22158   1.00
C6       -0.07772   0.89741    0.18335   1.00
C6       -0.03849   0.83677    0.18524   1.00
C6       -0.01071   0.76156    0.36808   1.00
C6       0.05775    0.73736    0.35967   1.00
H2       0.03788    0.77441    0.40456   1.00
H2       0.10949    0.80189    0.34494   1.00
C6       0.11622    0.86377    0.34550   1.00
C6       0.11607    0.82028    0.40441   1.00
H2       0.04625    0.88001    0.38919   1.00
C6       -0.01336   0.87463    0.37332   1.00
C6       0.01756    0.84513    0.43239   1.00
H2       -0.10346   0.86621    0.31933   1.00
H2       -0.13090   0.87865    0.27744   1.00
H2       -0.12917   0.91040    0.31810   1.00
H2       -0.09608   0.97185    0.28632   1.00
H2       -0.07178   0.96229    0.24217   1.00
H2       -0.11964   0.94551    0.24942   1.00
H2       0.06328    0.89598    0.22929   1.00
H2       0.03468    0.85420    0.22357   1.00
H2       0.02648    0.89534    0.19337   1.00
H2       -0.00862   0.96315    0.27220   1.00
H2       0.03692    0.95818    0.24984   1.00
H2       -0.00550   0.95753    0.22070   1.00
H2       -0.05514   0.91911    0.17742   1.00
H2       -0.08708   0.88515    0.15539   1.00
H2       -0.10332   0.91206    0.19496   1.00
H2       -0.01902   0.85248    0.16553   1.00
H2       -0.02068   0.81625    0.20138   1.00
H2       -0.05828   0.81951    0.16709   1.00
H2       -0.01688   0.75152    0.33856   1.00
H2       -0.01809   0.73758    0.38780   1.00
H2       -0.03048   0.78549    0.37477   1.00
H2       0.04875    0.71109    0.37543   1.00
H2       0.05426    0.73120    0.32873   1.00
H2       0.08878    0.74114    0.36566   1.00
H2       0.14798    0.86110    0.34360   1.00
H2       0.10565    0.86932    0.31593   1.00
H2       0.10965    0.88930    0.36335   1.00
H2       0.10584    0.79356    0.41838   1.00
H2       0.14788    0.81821    0.40255   1.00
H2       0.10915    0.84496    0.42335   1.00
H2       -0.03656   0.85311    0.37006   1.00
H2       -0.02381   0.89774    0.39263   1.00
H2       -0.00834   0.88784    0.34497   1.00
H2       0.00956    0.87099    0.44931   1.00
H2       -0.00622   0.82407    0.43513   1.00
H2       0.04343    0.83280    0.44618   1.00
C4       0.52084    0.74698    0.24960   1.00
C4       0.47912    0.74741    0.25019   1.00
C3       0.54364    0.71558    0.26411   1.00
C3       0.45616    0.71818    0.26850   1.00
C3       0.54123    0.77991    0.23425   1.00
C3       0.45886    0.77860    0.23143   1.00
C2       0.60512    0.74917    0.24913   1.00
C2       0.39488    0.75083    0.25087   1.00
C3       0.58462    0.71671    0.26410   1.00
C3       0.41519    0.71962    0.26853   1.00
C3       0.58258    0.78017    0.23383   1.00
C3       0.41762    0.78039    0.23324   1.00
H1       0.53115    0.69090    0.27499   1.00
H1       0.46852    0.69510    0.28257   1.00
C5       0.52020    0.81227    0.21926   1.00
C5       0.47980    0.80803    0.21128   1.00
H1       0.59955    0.69325    0.27524   1.00
H1       0.40010    0.69749    0.28194   1.00
H1       0.59680    0.80351    0.22174   1.00
H1       0.40368    0.80418    0.22184   1.00
O3       0.53961    0.84640    0.21058   1.00
O3       0.46099    0.83385    0.18665   1.00
Si1      0.54247    0.88100    0.24322   1.00
Si1      0.45279    0.82082    0.14159   1.00
C6       0.57538    0.91123    0.21759   1.00
C6       0.49598    0.90276    0.24669   1.00
C6       0.56253    0.86520    0.28796   1.00
C6       0.46693    0.77342    0.12691   1.00
C6       0.40198    0.82560    0.13717   1.00
C6       0.47477    0.85607    0.11132   1.00
C6       0.61194    0.89032    0.19972   1.00
H2       0.55791    0.92050    0.19259   1.00
C6       0.59147    0.94983    0.23631   1.00
H2       0.48358    0.89639    0.21807   1.00
C6       0.46634    0.88592    0.27706   1.00
C6       0.49336    0.94812    0.25137   1.00
H2       0.58831    0.84902    0.27842   1.00
C6       0.57772    0.89741    0.31665   1.00
C6       0.53849    0.83677    0.31476   1.00
C6       0.51071    0.76156    0.13192   1.00
C6       0.44225    0.73736    0.14033   1.00
H2       0.46212    0.77441    0.09544   1.00
H2       0.39051    0.80189    0.15506   1.00
C6       0.38378    0.86377    0.15450   1.00
C6       0.38393    0.82028    0.09559   1.00
H2       0.45375    0.88001    0.11081   1.00
C6       0.51336    0.87463    0.12668   1.00
C6       0.48244    0.84513    0.06761   1.00
H2       0.60346    0.86621    0.18067   1.00
H2       0.63090    0.87865    0.22256   1.00
H2       0.62917    0.91040    0.18190   1.00
H2       0.59608    0.97185    0.21368   1.00
H2       0.57178    0.96229    0.25783   1.00
H2       0.61964    0.94551    0.25058   1.00
H2       0.43672    0.89598    0.27071   1.00
H2       0.46532    0.85420    0.27643   1.00
H2       0.47352    0.89534    0.30663   1.00
H2       0.50862    0.96315    0.22780   1.00
H2       0.46308    0.95818    0.25016   1.00
H2       0.50550    0.95753    0.27930   1.00
H2       0.55514    0.91911    0.32258   1.00
H2       0.58708    0.88515    0.34461   1.00
H2       0.60332    0.91206    0.30504   1.00
H2       0.51902    0.85248    0.33447   1.00
H2       0.52068    0.81625    0.29862   1.00
H2       0.55828    0.81951    0.33291   1.00
H2       0.51688    0.75152    0.16144   1.00
H2       0.51809    0.73758    0.11220   1.00
H2       0.53048    0.78549    0.12523   1.00
H2       0.45125    0.71109    0.12457   1.00
H2       0.44574    0.73120    0.17127   1.00
H2       0.41122    0.74114    0.13434   1.00
H2       0.35202    0.86110    0.15640   1.00
H2       0.39435    0.86932    0.18407   1.00
H2       0.39035    0.88930    0.13665   1.00
H2       0.39416    0.79356    0.08162   1.00
H2       0.35212    0.81821    0.09745   1.00
H2       0.39085    0.84496    0.07665   1.00
H2       0.53656    0.85311    0.12994   1.00
H2       0.52381    0.89774    0.10737   1.00
H2       0.50834    0.88784    0.15503   1.00
H2       0.49044    0.87099    0.05069   1.00
H2       0.50622    0.82407    0.06487   1.00
H2       0.45657    0.83280    0.05382   1.00
C4       0.25040    0.47916    0.24698   1.00
C4       0.24981    0.52088    0.24741   1.00
C3       0.23589    0.45636    0.21558   1.00
C3       0.23150    0.54384    0.21818   1.00
C3       0.26575    0.45877    0.27991   1.00
C3       0.26857    0.54114    0.27860   1.00
C2       0.25087    0.39488    0.24917   1.00
C2       0.24913    0.60512    0.25083   1.00
C3       0.23590    0.41538    0.21671   1.00
C3       0.23147    0.58481    0.21962   1.00
C3       0.26617    0.41742    0.28017   1.00
C3       0.26676    0.58238    0.28039   1.00
H1       0.22501    0.46885    0.19090   1.00
H1       0.21743    0.53148    0.19510   1.00
C5       0.28074    0.47980    0.31227   1.00
C5       0.28872    0.52020    0.30803   1.00
H1       0.22476    0.40045    0.19325   1.00
H1       0.21806    0.59990    0.19749   1.00
H1       0.27826    0.40320    0.30351   1.00
H1       0.27816    0.59632    0.30418   1.00
O3       0.28942    0.46039    0.34640   1.00
O3       0.31335    0.53901    0.33385   1.00
Si1      0.25678    0.45753    0.38100   1.00
Si1      0.35841    0.54721    0.32082   1.00
C6       0.28241    0.42462    0.41123   1.00
C6       0.25331    0.50402    0.40276   1.00
C6       0.21204    0.43747    0.36520   1.00
C6       0.37309    0.53307    0.27342   1.00
C6       0.36283    0.59802    0.32560   1.00
C6       0.38868    0.52523    0.35607   1.00
C6       0.30028    0.38806    0.39032   1.00
H2       0.30741    0.44209    0.42050   1.00
C6       0.26369    0.40853    0.44983   1.00
H2       0.28193    0.51642    0.39639   1.00
C6       0.22294    0.53366    0.38592   1.00
C6       0.24863    0.50664    0.44812   1.00
H2       0.22158    0.41169    0.34902   1.00
C6       0.18335    0.42228    0.39741   1.00
C6       0.18524    0.46151    0.33677   1.00
C6       0.36808    0.48929    0.26156   1.00
C6       0.35967    0.55775    0.23736   1.00
H2       0.40456    0.53788    0.27441   1.00
H2       0.34494    0.60949    0.30189   1.00
C6       0.34550    0.61622    0.36377   1.00
C6       0.40441    0.61607    0.32028   1.00
H2       0.38919    0.54625    0.38001   1.00
C6       0.37332    0.48664    0.37463   1.00
C6       0.43239    0.51756    0.34513   1.00
H2       0.31933    0.39654    0.36621   1.00
H2       0.27744    0.36910    0.37865   1.00
H2       0.31810    0.37083    0.41040   1.00
H2       0.28632    0.40392    0.47185   1.00
H2       0.24217    0.42822    0.46229   1.00
H2       0.24942    0.38036    0.44551   1.00
H2       0.22929    0.56328    0.39598   1.00
H2       0.22357    0.53468    0.35420   1.00
H2       0.19337    0.52648    0.39534   1.00
H2       0.27220    0.49138    0.46315   1.00
H2       0.24984    0.53692    0.45818   1.00
H2       0.22070    0.49450    0.45753   1.00
H2       0.17742    0.44486    0.41911   1.00
H2       0.15539    0.41292    0.38515   1.00
H2       0.19496    0.39668    0.41206   1.00
H2       0.16553    0.48098    0.35248   1.00
H2       0.20138    0.47932    0.31625   1.00
H2       0.16709    0.44172    0.31951   1.00
H2       0.33856    0.48312    0.25152   1.00
H2       0.38780    0.48191    0.23758   1.00
H2       0.37477    0.46952    0.28549   1.00
H2       0.37543    0.54875    0.21109   1.00
H2       0.32873    0.55426    0.23120   1.00
H2       0.36566    0.58878    0.24114   1.00
H2       0.34360    0.64798    0.36110   1.00
H2       0.31593    0.60565    0.36932   1.00
H2       0.36335    0.60965    0.38930   1.00
H2       0.41838    0.60584    0.29356   1.00
H2       0.40255    0.64788    0.31821   1.00
H2       0.42335    0.60915    0.34496   1.00
H2       0.37006    0.46344    0.35311   1.00
H2       0.39263    0.47619    0.39774   1.00
H2       0.34497    0.49166    0.38784   1.00
H2       0.44931    0.50956    0.37099   1.00
H2       0.43513    0.49378    0.32407   1.00
H2       0.44618    0.54343    0.33280   1.00
C4       0.24698    0.75040    -0.02084   1.00
C4       0.24741    0.74981    0.02088   1.00
C3       0.21558    0.73589    -0.04364   1.00
C3       0.21818    0.73150    0.04384   1.00
C3       0.27991    0.76575    -0.04123   1.00
C3       0.27860    0.76857    0.04114   1.00
C2       0.24917    0.75087    -0.10512   1.00
C2       0.25083    0.74913    0.10512   1.00
C3       0.21671    0.73590    -0.08462   1.00
C3       0.21962    0.73147    0.08481   1.00
C3       0.28017    0.76617    -0.08258   1.00
C3       0.28039    0.76676    0.08238   1.00
H1       0.19090    0.72501    -0.03115   1.00
H1       0.19510    0.71743    0.03148   1.00
C5       0.31227    0.78074    -0.02020   1.00
C5       0.30803    0.78872    0.02020   1.00
H1       0.19325    0.72476    -0.09955   1.00
H1       0.19749    0.71806    0.09990   1.00
H1       0.30351    0.77826    -0.09680   1.00
H1       0.30418    0.77816    0.09632   1.00
O3       0.34640    0.78942    -0.03961   1.00
O3       0.33385    0.81335    0.03901   1.00
Si1      0.38100    0.75678    -0.04247   1.00
Si1      0.32082    0.85841    0.04721   1.00
C6       0.41123    0.78241    -0.07538   1.00
C6       0.40276    0.75331    0.00402   1.00
C6       0.36520    0.71204    -0.06253   1.00
C6       0.27342    0.87309    0.03307   1.00
C6       0.32560    0.86283    0.09802   1.00
C6       0.35607    0.88868    0.02523   1.00
C6       0.39032    0.80028    -0.11194   1.00
H2       0.42050    0.80741    -0.05791   1.00
C6       0.44983    0.76369    -0.09147   1.00
H2       0.39639    0.78193    0.01642   1.00
C6       0.38592    0.72294    0.03366   1.00
C6       0.44812    0.74863    0.00664   1.00
H2       0.34902    0.72158    -0.08831   1.00
C6       0.39741    0.68335    -0.07772   1.00
C6       0.33677    0.68524    -0.03849   1.00
C6       0.26156    0.86808    -0.01071   1.00
C6       0.23736    0.85967    0.05775   1.00
H2       0.27441    0.90456    0.03788   1.00
H2       0.30189    0.84494    0.10949   1.00
C6       0.36377    0.84550    0.11622   1.00
C6       0.32028    0.90441    0.11607   1.00
H2       0.38001    0.88919    0.04625   1.00
C6       0.37463    0.87332    -0.01336   1.00
C6       0.34513    0.93239    0.01756   1.00
H2       0.36621    0.81933    -0.10346   1.00
H2       0.37865    0.77744    -0.13090   1.00
H2       0.41040    0.81810    -0.12917   1.00
H2       0.47185    0.78632    -0.09608   1.00
H2       0.46229    0.74217    -0.07178   1.00
H2       0.44551    0.74942    -0.11964   1.00
H2       0.39598    0.72929    0.06328   1.00
H2       0.35420    0.72357    0.03468   1.00
H2       0.39534    0.69337    0.02648   1.00
H2       0.46315    0.77220    -0.00862   1.00
H2       0.45818    0.74984    0.03692   1.00
H2       0.45753    0.72070    -0.00550   1.00
H2       0.41911    0.67742    -0.05514   1.00
H2       0.38515    0.65539    -0.08708   1.00
H2       0.41206    0.69496    -0.10332   1.00
H2       0.35248    0.66553    -0.01902   1.00
H2       0.31625    0.70138    -0.02068   1.00
H2       0.31951    0.66709    -0.05828   1.00
H2       0.25152    0.83856    -0.01688   1.00
H2       0.23758    0.88780    -0.01809   1.00
H2       0.28549    0.87477    -0.03048   1.00
H2       0.21109    0.87543    0.04875   1.00
H2       0.23120    0.82873    0.05426   1.00
H2       0.24114    0.86566    0.08878   1.00
H2       0.36110    0.84360    0.14798   1.00
H2       0.36932    0.81593    0.10565   1.00
H2       0.38930    0.86335    0.10965   1.00
H2       0.29356    0.91838    0.10584   1.00
H2       0.31821    0.90255    0.14788   1.00
H2       0.34496    0.92335    0.10915   1.00
H2       0.35311    0.87006    -0.03656   1.00
H2       0.39774    0.89263    -0.02381   1.00
H2       0.38784    0.84497    -0.00834   1.00
H2       0.37099    0.94931    0.00956   1.00
H2       0.32407    0.93513    -0.00622   1.00
H2       0.33280    0.94618    0.04343   1.00
C4       0.74698    0.24960    0.52084   1.00
C4       0.74741    0.25019    0.47912   1.00
C3       0.71558    0.26411    0.54364   1.00
C3       0.71818    0.26850    0.45616   1.00
C3       0.77991    0.23425    0.54123   1.00
C3       0.77860    0.23143    0.45886   1.00
C2       0.74917    0.24913    0.60512   1.00
C2       0.75083    0.25087    0.39488   1.00
C3       0.71671    0.26410    0.58462   1.00
C3       0.71962    0.26853    0.41519   1.00
C3       0.78017    0.23383    0.58258   1.00
C3       0.78039    0.23324    0.41762   1.00
H1       0.69090    0.27499    0.53115   1.00
H1       0.69510    0.28257    0.46852   1.00
C5       0.81227    0.21926    0.52020   1.00
C5       0.80803    0.21128    0.47980   1.00
H1       0.69325    0.27524    0.59955   1.00
H1       0.69749    0.28194    0.40010   1.00
H1       0.80351    0.22174    0.59680   1.00
H1       0.80418    0.22184    0.40368   1.00
O3       0.84640    0.21058    0.53961   1.00
O3       0.83385    0.18665    0.46099   1.00
Si1      0.88100    0.24322    0.54247   1.00
Si1      0.82082    0.14159    0.45279   1.00
C6       0.91123    0.21759    0.57538   1.00
C6       0.90276    0.24669    0.49598   1.00
C6       0.86520    0.28796    0.56253   1.00
C6       0.77342    0.12691    0.46693   1.00
C6       0.82560    0.13717    0.40198   1.00
C6       0.85607    0.11132    0.47477   1.00
C6       0.89032    0.19972    0.61194   1.00
H2       0.92050    0.19259    0.55791   1.00
C6       0.94983    0.23631    0.59147   1.00
H2       0.89639    0.21807    0.48358   1.00
C6       0.88592    0.27706    0.46634   1.00
C6       0.94812    0.25137    0.49336   1.00
H2       0.84902    0.27842    0.58831   1.00
C6       0.89741    0.31665    0.57772   1.00
C6       0.83677    0.31476    0.53849   1.00
C6       0.76156    0.13192    0.51071   1.00
C6       0.73736    0.14033    0.44225   1.00
H2       0.77441    0.09544    0.46212   1.00
H2       0.80189    0.15506    0.39051   1.00
C6       0.86377    0.15450    0.38378   1.00
C6       0.82028    0.09559    0.38393   1.00
H2       0.88001    0.11081    0.45375   1.00
C6       0.87463    0.12668    0.51336   1.00
C6       0.84513    0.06761    0.48244   1.00
H2       0.86621    0.18067    0.60346   1.00
H2       0.87865    0.22256    0.63090   1.00
H2       0.91040    0.18190    0.62917   1.00
H2       0.97185    0.21368    0.59608   1.00
H2       0.96229    0.25783    0.57178   1.00
H2       0.94551    0.25058    0.61964   1.00
H2       0.89598    0.27071    0.43672   1.00
H2       0.85420    0.27643    0.46532   1.00
H2       0.89534    0.30663    0.47352   1.00
H2       0.96315    0.22780    0.50862   1.00
H2       0.95818    0.25016    0.46308   1.00
H2       0.95753    0.27930    0.50550   1.00
H2       0.91911    0.32258    0.55514   1.00
H2       0.88515    0.34461    0.58708   1.00
H2       0.91206    0.30504    0.60332   1.00
H2       0.85248    0.33447    0.51902   1.00
H2       0.81625    0.29862    0.52068   1.00
H2       0.81951    0.33291    0.55828   1.00
H2       0.75152    0.16144    0.51688   1.00
H2       0.73758    0.11220    0.51809   1.00
H2       0.78549    0.12523    0.53048   1.00
H2       0.71109    0.12457    0.45125   1.00
H2       0.73120    0.17127    0.44574   1.00
H2       0.74114    0.13434    0.41122   1.00
H2       0.86110    0.15640    0.35202   1.00
H2       0.86932    0.18407    0.39435   1.00
H2       0.88930    0.13665    0.39035   1.00
H2       0.79356    0.08162    0.39416   1.00
H2       0.81821    0.09745    0.35212   1.00
H2       0.84496    0.07665    0.39085   1.00
H2       0.85311    0.12994    0.53656   1.00
H2       0.89774    0.10737    0.52381   1.00
H2       0.88784    0.15503    0.50834   1.00
H2       0.87099    0.05069    0.49044   1.00
H2       0.82407    0.06487    0.50622   1.00
H2       0.83280    0.05382    0.45657   1.00
C4       0.74960    0.52084    0.24698   1.00
C4       0.75019    0.47912    0.24741   1.00
C3       0.76411    0.54364    0.21558   1.00
C3       0.76850    0.45616    0.21818   1.00
C3       0.73425    0.54123    0.27991   1.00
C3       0.73143    0.45886    0.27860   1.00
C2       0.74913    0.60512    0.24917   1.00
C2       0.75087    0.39488    0.25083   1.00
C3       0.76410    0.58462    0.21671   1.00
C3       0.76853    0.41519    0.21962   1.00
C3       0.73383    0.58258    0.28017   1.00
C3       0.73324    0.41762    0.28039   1.00
H1       0.77499    0.53115    0.19090   1.00
H1       0.78257    0.46852    0.19510   1.00
C5       0.71926    0.52020    0.31227   1.00
C5       0.71128    0.47980    0.30803   1.00
H1       0.77524    0.59955    0.19325   1.00
H1       0.78194    0.40010    0.19749   1.00
H1       0.72174    0.59680    0.30351   1.00
H1       0.72184    0.40368    0.30418   1.00
O3       0.71058    0.53961    0.34640   1.00
O3       0.68665    0.46099    0.33385   1.00
Si1      0.74322    0.54247    0.38100   1.00
Si1      0.64159    0.45279    0.32082   1.00
C6       0.71759    0.57538    0.41123   1.00
C6       0.74669    0.49598    0.40276   1.00
C6       0.78796    0.56253    0.36520   1.00
C6       0.62691    0.46693    0.27342   1.00
C6       0.63717    0.40198    0.32560   1.00
C6       0.61132    0.47477    0.35607   1.00
C6       0.69972    0.61194    0.39032   1.00
H2       0.69259    0.55791    0.42050   1.00
C6       0.73631    0.59147    0.44983   1.00
H2       0.71807    0.48358    0.39639   1.00
C6       0.77706    0.46634    0.38592   1.00
C6       0.75137    0.49336    0.44812   1.00
H2       0.77842    0.58831    0.34902   1.00
C6       0.81665    0.57772    0.39741   1.00
C6       0.81476    0.53849    0.33677   1.00
C6       0.63192    0.51071    0.26156   1.00
C6       0.64033    0.44225    0.23736   1.00
H2       0.59544    0.46212    0.27441   1.00
H2       0.65506    0.39051    0.30189   1.00
C6       0.65450    0.38378    0.36377   1.00
C6       0.59559    0.38393    0.32028   1.00
H2       0.61081    0.45375    0.38001   1.00
C6       0.62668    0.51336    0.37463   1.00
C6       0.56761    0.48244    0.34513   1.00
H2       0.68067    0.60346    0.36621   1.00
H2       0.72256    0.63090    0.37865   1.00
H2       0.68190    0.62917    0.41040   1.00
H2       0.71368    0.59608    0.47185   1.00
H2       0.75783    0.57178    0.46229   1.00
H2       0.75058    0.61964    0.44551   1.00
H2       0.77071    0.43672    0.39598   1.00
H2       0.77643    0.46532    0.35420   1.00
H2       0.80663    0.47352    0.39534   1.00
H2       0.72780    0.50862    0.46315   1.00
H2       0.75016    0.46308    0.45818   1.00
H2       0.77930    0.50550    0.45753   1.00
H2       0.82258    0.55514    0.41911   1.00
H2       0.84461    0.58708    0.38515   1.00
H2       0.80504    0.60332    0.41206   1.00
H2       0.83447    0.51902    0.35248   1.00
H2       0.79862    0.52068    0.31625   1.00
H2       0.83291    0.55828    0.31951   1.00
H2       0.66144    0.51688    0.25152   1.00
H2       0.61220    0.51809    0.23758   1.00
H2       0.62523    0.53048    0.28549   1.00
H2       0.62457    0.45125    0.21109   1.00
H2       0.67127    0.44574    0.23120   1.00
H2       0.63434    0.41122    0.24114   1.00
H2       0.65640    0.35202    0.36110   1.00
H2       0.68407    0.39435    0.36932   1.00
H2       0.63665    0.39035    0.38930   1.00
H2       0.58162    0.39416    0.29356   1.00
H2       0.59745    0.35212    0.31821   1.00
H2       0.57665    0.39085    0.34496   1.00
H2       0.62994    0.53656    0.35311   1.00
H2       0.60737    0.52381    0.39774   1.00
H2       0.65503    0.50834    0.38784   1.00
H2       0.55069    0.49044    0.37099   1.00
H2       0.56487    0.50622    0.32407   1.00
H2       0.55382    0.45657    0.33280   1.00
C4       0.47916    0.24698    0.25040   1.00
C4       0.52088    0.24741    0.24981   1.00
C3       0.45636    0.21558    0.23589   1.00
C3       0.54384    0.21818    0.23150   1.00
C3       0.45877    0.27991    0.26575   1.00
C3       0.54114    0.27860    0.26857   1.00
C2       0.39488    0.24917    0.25087   1.00
C2       0.60512    0.25083    0.24913   1.00
C3       0.41538    0.21671    0.23590   1.00
C3       0.58481    0.21962    0.23147   1.00
C3       0.41742    0.28017    0.26617   1.00
C3       0.58238    0.28039    0.26676   1.00
H1       0.46885    0.19090    0.22501   1.00
H1       0.53148    0.19510    0.21743   1.00
C5       0.47980    0.31227    0.28074   1.00
C5       0.52020    0.30803    0.28872   1.00
H1       0.40045    0.19325    0.22476   1.00
H1       0.59990    0.19749    0.21806   1.00
H1       0.40320    0.30351    0.27826   1.00
H1       0.59632    0.30418    0.27816   1.00
O3       0.46039    0.34640    0.28942   1.00
O3       0.53901    0.33385    0.31335   1.00
Si1      0.45753    0.38100    0.25678   1.00
Si1      0.54721    0.32082    0.35841   1.00
C6       0.42462    0.41123    0.28241   1.00
C6       0.50402    0.40276    0.25331   1.00
C6       0.43747    0.36520    0.21204   1.00
C6       0.53307    0.27342    0.37309   1.00
C6       0.59802    0.32560    0.36283   1.00
C6       0.52523    0.35607    0.38868   1.00
C6       0.38806    0.39032    0.30028   1.00
H2       0.44209    0.42050    0.30741   1.00
C6       0.40853    0.44983    0.26369   1.00
H2       0.51642    0.39639    0.28193   1.00
C6       0.53366    0.38592    0.22294   1.00
C6       0.50664    0.44812    0.24863   1.00
H2       0.41169    0.34902    0.22158   1.00
C6       0.42228    0.39741    0.18335   1.00
C6       0.46151    0.33677    0.18524   1.00
C6       0.48929    0.26156    0.36808   1.00
C6       0.55775    0.23736    0.35967   1.00
H2       0.53788    0.27441    0.40456   1.00
H2       0.60949    0.30189    0.34494   1.00
C6       0.61622    0.36377    0.34550   1.00
C6       0.61607    0.32028    0.40441   1.00
H2       0.54625    0.38001    0.38919   1.00
C6       0.48664    0.37463    0.37332   1.00
C6       0.51756    0.34513    0.43239   1.00
H2       0.39654    0.36621    0.31933   1.00
H2       0.36910    0.37865    0.27744   1.00
H2       0.37083    0.41040    0.31810   1.00
H2       0.40392    0.47185    0.28632   1.00
H2       0.42822    0.46229    0.24217   1.00
H2       0.38036    0.44551    0.24942   1.00
H2       0.56328    0.39598    0.22929   1.00
H2       0.53468    0.35420    0.22357   1.00
H2       0.52648    0.39534    0.19337   1.00
H2       0.49138    0.46315    0.27220   1.00
H2       0.53692    0.45818    0.24984   1.00
H2       0.49450    0.45753    0.22070   1.00
H2       0.44486    0.41911    0.17742   1.00
H2       0.41292    0.38515    0.15539   1.00
H2       0.39668    0.41206    0.19496   1.00
H2       0.48098    0.35248    0.16553   1.00
H2       0.47932    0.31625    0.20138   1.00
H2       0.44172    0.31951    0.16709   1.00
H2       0.48312    0.25152    0.33856   1.00
H2       0.48191    0.23758    0.38780   1.00
H2       0.46952    0.28549    0.37477   1.00
H2       0.54875    0.21109    0.37543   1.00
H2       0.55426    0.23120    0.32873   1.00
H2       0.58878    0.24114    0.36566   1.00
H2       0.64798    0.36110    0.34360   1.00
H2       0.60565    0.36932    0.31593   1.00
H2       0.60965    0.38930    0.36335   1.00
H2       0.60584    0.29356    0.41838   1.00
H2       0.64788    0.31821    0.40255   1.00
H2       0.60915    0.34496    0.42335   1.00
H2       0.46344    0.35311    0.37006   1.00
H2       0.47619    0.39774    0.39263   1.00
H2       0.49166    0.38784    0.34497   1.00
H2       0.50956    0.37099    0.44931   1.00
H2       0.49378    0.32407    0.43513   1.00
H2       0.54343    0.33280    0.44618   1.00
C4       1.02084    0.24698    0.24960   1.00
C4       0.97912    0.24741    0.25019   1.00
C3       1.04364    0.21558    0.26411   1.00
C3       0.95616    0.21818    0.26850   1.00
C3       1.04123    0.27991    0.23425   1.00
C3       0.95886    0.27860    0.23143   1.00
C2       1.10512    0.24917    0.24913   1.00
C2       0.89488    0.25083    0.25087   1.00
C3       1.08462    0.21671    0.26410   1.00
C3       0.91519    0.21962    0.26853   1.00
C3       1.08258    0.28017    0.23383   1.00
C3       0.91762    0.28039    0.23324   1.00
H1       1.03115    0.19090    0.27499   1.00
H1       0.96852    0.19510    0.28257   1.00
C5       1.02020    0.31227    0.21926   1.00
C5       0.97980    0.30803    0.21128   1.00
H1       1.09955    0.19325    0.27524   1.00
H1       0.90010    0.19749    0.28194   1.00
H1       1.09680    0.30351    0.22174   1.00
H1       0.90368    0.30418    0.22184   1.00
O3       1.03961    0.34640    0.21058   1.00
O3       0.96099    0.33385    0.18665   1.00
Si1      1.04247    0.38100    0.24322   1.00
Si1      0.95279    0.32082    0.14159   1.00
C6       1.07538    0.41123    0.21759   1.00
C6       0.99598    0.40276    0.24669   1.00
C6       1.06253    0.36520    0.28796   1.00
C6       0.96693    0.27342    0.12691   1.00
C6       0.90198    0.32560    0.13717   1.00
C6       0.97477    0.35607    0.11132   1.00
C6       1.11194    0.39032    0.19972   1.00
H2       1.05791    0.42050    0.19259   1.00
C6       1.09147    0.44983    0.23631   1.00
H2       0.98358    0.39639    0.21807   1.00
C6       0.96634    0.38592    0.27706   1.00
C6       0.99336    0.44812    0.25137   1.00
H2       1.08831    0.34902    0.27842   1.00
C6       1.07772    0.39741    0.31665   1.00
C6       1.03849    0.33677    0.31476   1.00
C6       1.01071    0.26156    0.13192   1.00
C6       0.94225    0.23736    0.14033   1.00
H2       0.96212    0.27441    0.09544   1.00
H2       0.89051    0.30189    0.15506   1.00
C6       0.88378    0.36377    0.15450   1.00
C6       0.88393    0.32028    0.09559   1.00
H2       0.95375    0.38001    0.11081   1.00
C6       1.01336    0.37463    0.12668   1.00
C6       0.98244    0.34513    0.06761   1.00
H2       1.10346    0.36621    0.18067   1.00
H2       1.13090    0.37865    0.22256   1.00
H2       1.12917    0.41040    0.18190   1.00
H2       1.09608    0.47185    0.21368   1.00
H2       1.07178    0.46229    0.25783   1.00
H2       1.11964    0.44551    0.25058   1.00
H2       0.93672    0.39598    0.27071   1.00
H2       0.96532    0.35420    0.27643   1.00
H2       0.97352    0.39534    0.30663   1.00
H2       1.00862    0.46315    0.22780   1.00
H2       0.96308    0.45818    0.25016   1.00
H2       1.00550    0.45753    0.27930   1.00
H2       1.05514    0.41911    0.32258   1.00
H2       1.08708    0.38515    0.34461   1.00
H2       1.10332    0.41206    0.30504   1.00
H2       1.01902    0.35248    0.33447   1.00
H2       1.02068    0.31625    0.29862   1.00
H2       1.05828    0.31951    0.33291   1.00
H2       1.01688    0.25152    0.16144   1.00
H2       1.01809    0.23758    0.11220   1.00
H2       1.03048    0.28549    0.12523   1.00
H2       0.95125    0.21109    0.12457   1.00
H2       0.94574    0.23120    0.17127   1.00
H2       0.91122    0.24114    0.13434   1.00
H2       0.85202    0.36110    0.15640   1.00
H2       0.89435    0.36932    0.18407   1.00
H2       0.89035    0.38930    0.13665   1.00
H2       0.89416    0.29356    0.08162   1.00
H2       0.85212    0.31821    0.09745   1.00
H2       0.89085    0.34496    0.07665   1.00
H2       1.03656    0.35311    0.12994   1.00
H2       1.02381    0.39774    0.10737   1.00
H2       1.00834    0.38784    0.15503   1.00
H2       0.99044    0.37099    0.05069   1.00
H2       1.00622    0.32407    0.06487   1.00
H2       0.95657    0.33280    0.05382   1.00
C4       0.75040    -0.02084   0.24698   1.00
C4       0.74981    0.02088    0.24741   1.00
C3       0.73589    -0.04364   0.21558   1.00
C3       0.73150    0.04384    0.21818   1.00
C3       0.76575    -0.04123   0.27991   1.00
C3       0.76857    0.04114    0.27860   1.00
C2       0.75087    -0.10512   0.24917   1.00
C2       0.74913    0.10512    0.25083   1.00
C3       0.73590    -0.08462   0.21671   1.00
C3       0.73147    0.08481    0.21962   1.00
C3       0.76617    -0.08258   0.28017   1.00
C3       0.76676    0.08238    0.28039   1.00
H1       0.72501    -0.03115   0.19090   1.00
H1       0.71743    0.03148    0.19510   1.00
C5       0.78074    -0.02020   0.31227   1.00
C5       0.78872    0.02020    0.30803   1.00
H1       0.72476    -0.09955   0.19325   1.00
H1       0.71806    0.09990    0.19749   1.00
H1       0.77826    -0.09680   0.30351   1.00
H1       0.77816    0.09632    0.30418   1.00
O3       0.78942    -0.03961   0.34640   1.00
O3       0.81335    0.03901    0.33385   1.00
Si1      0.75678    -0.04247   0.38100   1.00
Si1      0.85841    0.04721    0.32082   1.00
C6       0.78241    -0.07538   0.41123   1.00
C6       0.75331    0.00402    0.40276   1.00
C6       0.71204    -0.06253   0.36520   1.00
C6       0.87309    0.03307    0.27342   1.00
C6       0.86283    0.09802    0.32560   1.00
C6       0.88868    0.02523    0.35607   1.00
C6       0.80028    -0.11194   0.39032   1.00
H2       0.80741    -0.05791   0.42050   1.00
C6       0.76369    -0.09147   0.44983   1.00
H2       0.78193    0.01642    0.39639   1.00
C6       0.72294    0.03366    0.38592   1.00
C6       0.74863    0.00664    0.44812   1.00
H2       0.72158    -0.08831   0.34902   1.00
C6       0.68335    -0.07772   0.39741   1.00
C6       0.68524    -0.03849   0.33677   1.00
C6       0.86808    -0.01071   0.26156   1.00
C6       0.85967    0.05775    0.23736   1.00
H2       0.90456    0.03788    0.27441   1.00
H2       0.84494    0.10949    0.30189   1.00
C6       0.84550    0.11622    0.36377   1.00
C6       0.90441    0.11607    0.32028   1.00
H2       0.88919    0.04625    0.38001   1.00
C6       0.87332    -0.01336   0.37463   1.00
C6       0.93239    0.01756    0.34513   1.00
H2       0.81933    -0.10346   0.36621   1.00
H2       0.77744    -0.13090   0.37865   1.00
H2       0.81810    -0.12917   0.41040   1.00
H2       0.78632    -0.09608   0.47185   1.00
H2       0.74217    -0.07178   0.46229   1.00
H2       0.74942    -0.11964   0.44551   1.00
H2       0.72929    0.06328    0.39598   1.00
H2       0.72357    0.03468    0.35420   1.00
H2       0.69337    0.02648    0.39534   1.00
H2       0.77220    -0.00862   0.46315   1.00
H2       0.74984    0.03692    0.45818   1.00
H2       0.72070    -0.00550   0.45753   1.00
H2       0.67742    -0.05514   0.41911   1.00
H2       0.65539    -0.08708   0.38515   1.00
H2       0.69496    -0.10332   0.41206   1.00
H2       0.66553    -0.01902   0.35248   1.00
H2       0.70138    -0.02068   0.31625   1.00
H2       0.66709    -0.05828   0.31951   1.00
H2       0.83856    -0.01688   0.25152   1.00
H2       0.88780    -0.01809   0.23758   1.00
H2       0.87477    -0.03048   0.28549   1.00
H2       0.87543    0.04875    0.21109   1.00
H2       0.82873    0.05426    0.23120   1.00
H2       0.86566    0.08878    0.24114   1.00
H2       0.84360    0.14798    0.36110   1.00
H2       0.81593    0.10565    0.36932   1.00
H2       0.86335    0.10965    0.38930   1.00
H2       0.91838    0.10584    0.29356   1.00
H2       0.90255    0.14788    0.31821   1.00
H2       0.92335    0.10915    0.34496   1.00
H2       0.87006    -0.03656   0.35311   1.00
H2       0.89263    -0.02381   0.39774   1.00
H2       0.84497    -0.00834   0.38784   1.00
H2       0.94931    0.00956    0.37099   1.00
H2       0.93513    -0.00622   0.32407   1.00
H2       0.94618    0.04343    0.33280   1.00
C4       0.74698    0.25040    -0.02084   1.00
C4       0.74741    0.24981    0.02088   1.00
C3       0.71558    0.23589    -0.04364   1.00
C3       0.71818    0.23150    0.04384   1.00
C3       0.77991    0.26575    -0.04123   1.00
C3       0.77860    0.26857    0.04114   1.00
C2       0.74917    0.25087    -0.10512   1.00
C2       0.75083    0.24913    0.10512   1.00
C3       0.71671    0.23590    -0.08462   1.00
C3       0.71962    0.23147    0.08481   1.00
C3       0.78017    0.26617    -0.08258   1.00
C3       0.78039    0.26676    0.08238   1.00
H1       0.69090    0.22501    -0.03115   1.00
H1       0.69510    0.21743    0.03148   1.00
C5       0.81227    0.28074    -0.02020   1.00
C5       0.80803    0.28872    0.02020   1.00
H1       0.69325    0.22476    -0.09955   1.00
H1       0.69749    0.21806    0.09990   1.00
H1       0.80351    0.27826    -0.09680   1.00
H1       0.80418    0.27816    0.09632   1.00
O3       0.84640    0.28942    -0.03961   1.00
O3       0.83385    0.31335    0.03901   1.00
Si1      0.88100    0.25678    -0.04247   1.00
Si1      0.82082    0.35841    0.04721   1.00
C6       0.91123    0.28241    -0.07538   1.00
C6       0.90276    0.25331    0.00402   1.00
C6       0.86520    0.21204    -0.06253   1.00
C6       0.77342    0.37309    0.03307   1.00
C6       0.82560    0.36283    0.09802   1.00
C6       0.85607    0.38868    0.02523   1.00
C6       0.89032    0.30028    -0.11194   1.00
H2       0.92050    0.30741    -0.05791   1.00
C6       0.94983    0.26369    -0.09147   1.00
H2       0.89639    0.28193    0.01642   1.00
C6       0.88592    0.22294    0.03366   1.00
C6       0.94812    0.24863    0.00664   1.00
H2       0.84902    0.22158    -0.08831   1.00
C6       0.89741    0.18335    -0.07772   1.00
C6       0.83677    0.18524    -0.03849   1.00
C6       0.76156    0.36808    -0.01071   1.00
C6       0.73736    0.35967    0.05775   1.00
H2       0.77441    0.40456    0.03788   1.00
H2       0.80189    0.34494    0.10949   1.00
C6       0.86377    0.34550    0.11622   1.00
C6       0.82028    0.40441    0.11607   1.00
H2       0.88001    0.38919    0.04625   1.00
C6       0.87463    0.37332    -0.01336   1.00
C6       0.84513    0.43239    0.01756   1.00
H2       0.86621    0.31933    -0.10346   1.00
H2       0.87865    0.27744    -0.13090   1.00
H2       0.91040    0.31810    -0.12917   1.00
H2       0.97185    0.28632    -0.09608   1.00
H2       0.96229    0.24217    -0.07178   1.00
H2       0.94551    0.24942    -0.11964   1.00
H2       0.89598    0.22929    0.06328   1.00
H2       0.85420    0.22357    0.03468   1.00
H2       0.89534    0.19337    0.02648   1.00
H2       0.96315    0.27220    -0.00862   1.00
H2       0.95818    0.24984    0.03692   1.00
H2       0.95753    0.22070    -0.00550   1.00
H2       0.91911    0.17742    -0.05514   1.00
H2       0.88515    0.15539    -0.08708   1.00
H2       0.91206    0.19496    -0.10332   1.00
H2       0.85248    0.16553    -0.01902   1.00
H2       0.81625    0.20138    -0.02068   1.00
H2       0.81951    0.16709    -0.05828   1.00
H2       0.75152    0.33856    -0.01688   1.00
H2       0.73758    0.38780    -0.01809   1.00
H2       0.78549    0.37477    -0.03048   1.00
H2       0.71109    0.37543    0.04875   1.00
H2       0.73120    0.32873    0.05426   1.00
H2       0.74114    0.36566    0.08878   1.00
H2       0.86110    0.34360    0.14798   1.00
H2       0.86932    0.31593    0.10565   1.00
H2       0.88930    0.36335    0.10965   1.00
H2       0.79356    0.41838    0.10584   1.00
H2       0.81821    0.40255    0.14788   1.00
H2       0.84496    0.42335    0.10915   1.00
H2       0.85311    0.37006    -0.03656   1.00
H2       0.89774    0.39263    -0.02381   1.00
H2       0.88784    0.34497    -0.00834   1.00
H2       0.87099    0.44931    0.00956   1.00
H2       0.82407    0.43513    -0.00622   1.00
H2       0.83280    0.44618    0.04343   1.00
C4       0.91198    0.91460    1.18584   1.00
C4       0.91241    0.91519    1.14412   1.00
C3       0.88058    0.92911    1.20864   1.00
C3       0.88318    0.93350    1.12116   1.00
C3       0.94491    0.89925    1.20623   1.00
C3       0.94360    0.89643    1.12386   1.00
C2       0.91417    0.91413    1.27012   1.00
C2       0.91583    0.91587    1.05988   1.00
C3       0.88171    0.92910    1.24962   1.00
C3       0.88462    0.93353    1.08019   1.00
C3       0.94517    0.89883    1.24758   1.00
C3       0.94539    0.89824    1.08262   1.00
H1       0.85590    0.93999    1.19615   1.00
H1       0.86010    0.94757    1.13352   1.00
C5       0.97727    0.88426    1.18520   1.00
C5       0.97303    0.87628    1.14480   1.00
H1       0.85825    0.94024    1.26455   1.00
H1       0.86249    0.94694    1.06510   1.00
H1       0.96851    0.88674    1.26180   1.00
H1       0.96918    0.88684    1.06868   1.00
O3       1.01140    0.87558    1.20461   1.00
O3       0.99885    0.85165    1.12599   1.00
Si1      1.04600    0.90822    1.20747   1.00
Si1      0.98582    0.80659    1.11779   1.00
C6       1.07623    0.88259    1.24038   1.00
C6       1.06776    0.91169    1.16098   1.00
C6       1.03020    0.95296    1.22753   1.00
C6       0.93842    0.79191    1.13193   1.00
C6       0.99060    0.80217    1.06698   1.00
C6       1.02107    0.77632    1.13977   1.00
C6       1.05532    0.86472    1.27694   1.00
H2       1.08550    0.85759    1.22291   1.00
C6       1.11483    0.90131    1.25647   1.00
H2       1.06139    0.88307    1.14858   1.00
C6       1.05092    0.94206    1.13134   1.00
C6       1.11312    0.91637    1.15836   1.00
H2       1.01402    0.94342    1.25331   1.00
C6       1.06241    0.98165    1.24272   1.00
C6       1.00177    0.97976    1.20349   1.00
C6       0.92656    0.79692    1.17571   1.00
C6       0.90236    0.80533    1.10725   1.00
H2       0.93941    0.76044    1.12712   1.00
H2       0.96689    0.82006    1.05551   1.00
C6       1.02877    0.81950    1.04878   1.00
C6       0.98528    0.76059    1.04893   1.00
H2       1.04501    0.77581    1.11875   1.00
C6       1.03963    0.79168    1.17836   1.00
C6       1.01013    0.73261    1.14744   1.00
H2       1.03121    0.84567    1.26846   1.00
H2       1.04365    0.88756    1.29590   1.00
H2       1.07540    0.84690    1.29417   1.00
H2       1.13685    0.87868    1.26108   1.00
H2       1.12729    0.92283    1.23678   1.00
H2       1.11051    0.91558    1.28464   1.00
H2       1.06098    0.93571    1.10172   1.00
H2       1.01920    0.94143    1.13032   1.00
H2       1.06034    0.97163    1.13852   1.00
H2       1.12815    0.89280    1.17362   1.00
H2       1.12318    0.91516    1.12808   1.00
H2       1.12253    0.94430    1.17050   1.00
H2       1.08411    0.98758    1.22014   1.00
H2       1.05015    1.00961    1.25208   1.00
H2       1.07706    0.97004    1.26832   1.00
H2       1.01748    0.99947    1.18402   1.00
H2       0.98125    0.96362    1.18568   1.00
H2       0.98451    0.99791    1.22328   1.00
H2       0.91652    0.82644    1.18188   1.00
H2       0.90258    0.77720    1.18309   1.00
H2       0.95049    0.79023    1.19548   1.00
H2       0.87609    0.78957    1.11625   1.00
H2       0.89620    0.83627    1.11074   1.00
H2       0.90614    0.79934    1.07622   1.00
H2       1.02610    0.82140    1.01702   1.00
H2       1.03432    0.84907    1.05935   1.00
H2       1.05430    0.80165    1.05535   1.00
H2       0.95856    0.74662    1.05916   1.00
H2       0.98321    0.76245    1.01712   1.00
H2       1.00996    0.74165    1.05585   1.00
H2       1.01811    0.79494    1.20156   1.00
H2       1.06274    0.77237    1.18881   1.00
H2       1.05284    0.82003    1.17334   1.00
H2       1.03599    0.71569    1.15544   1.00
H2       0.98907    0.72987    1.17122   1.00
H2       0.99780    0.71882    1.12157   1.00
C4       0.91460    1.18584    0.91198   1.00
C4       0.91519    1.14412    0.91241   1.00
C3       0.92911    1.20864    0.88058   1.00
C3       0.93350    1.12116    0.88318   1.00
C3       0.89925    1.20623    0.94491   1.00
C3       0.89643    1.12386    0.94360   1.00
C2       0.91413    1.27012    0.91417   1.00
C2       0.91587    1.05988    0.91583   1.00
C3       0.92910    1.24962    0.88171   1.00
C3       0.93353    1.08019    0.88462   1.00
C3       0.89883    1.24758    0.94517   1.00
C3       0.89824    1.08262    0.94539   1.00
H1       0.93999    1.19615    0.85590   1.00
H1       0.94757    1.13352    0.86010   1.00
C5       0.88426    1.18520    0.97727   1.00
C5       0.87628    1.14480    0.97303   1.00
H1       0.94024    1.26455    0.85825   1.00
H1       0.94694    1.06510    0.86249   1.00
H1       0.88674    1.26180    0.96851   1.00
H1       0.88684    1.06868    0.96918   1.00
O3       0.87558    1.20461    1.01140   1.00
O3       0.85165    1.12599    0.99885   1.00
Si1      0.90822    1.20747    1.04600   1.00
Si1      0.80659    1.11779    0.98582   1.00
C6       0.88259    1.24038    1.07623   1.00
C6       0.91169    1.16098    1.06776   1.00
C6       0.95296    1.22753    1.03020   1.00
C6       0.79191    1.13193    0.93842   1.00
C6       0.80217    1.06698    0.99060   1.00
C6       0.77632    1.13977    1.02107   1.00
C6       0.86472    1.27694    1.05532   1.00
H2       0.85759    1.22291    1.08550   1.00
C6       0.90131    1.25647    1.11483   1.00
H2       0.88307    1.14858    1.06139   1.00
C6       0.94206    1.13134    1.05092   1.00
C6       0.91637    1.15836    1.11312   1.00
H2       0.94342    1.25331    1.01402   1.00
C6       0.98165    1.24272    1.06241   1.00
C6       0.97976    1.20349    1.00177   1.00
C6       0.79692    1.17571    0.92656   1.00
C6       0.80533    1.10725    0.90236   1.00
H2       0.76044    1.12712    0.93941   1.00
H2       0.82006    1.05551    0.96689   1.00
C6       0.81950    1.04878    1.02877   1.00
C6       0.76059    1.04893    0.98528   1.00
H2       0.77581    1.11875    1.04501   1.00
C6       0.79168    1.17836    1.03963   1.00
C6       0.73261    1.14744    1.01013   1.00
H2       0.84567    1.26846    1.03121   1.00
H2       0.88756    1.29590    1.04365   1.00
H2       0.84690    1.29417    1.07540   1.00
H2       0.87868    1.26108    1.13685   1.00
H2       0.92283    1.23678    1.12729   1.00
H2       0.91558    1.28464    1.11051   1.00
H2       0.93571    1.10172    1.06098   1.00
H2       0.94143    1.13032    1.01920   1.00
H2       0.97163    1.13852    1.06034   1.00
H2       0.89280    1.17362    1.12815   1.00
H2       0.91516    1.12808    1.12318   1.00
H2       0.94430    1.17050    1.12253   1.00
H2       0.98758    1.22014    1.08411   1.00
H2       1.00961    1.25208    1.05015   1.00
H2       0.97004    1.26832    1.07706   1.00
H2       0.99947    1.18402    1.01748   1.00
H2       0.96362    1.18568    0.98125   1.00
H2       0.99791    1.22328    0.98451   1.00
H2       0.82644    1.18188    0.91652   1.00
H2       0.77720    1.18309    0.90258   1.00
H2       0.79023    1.19548    0.95049   1.00
H2       0.78957    1.11625    0.87609   1.00
H2       0.83627    1.11074    0.89620   1.00
H2       0.79934    1.07622    0.90614   1.00
H2       0.82140    1.01702    1.02610   1.00
H2       0.84907    1.05935    1.03432   1.00
H2       0.80165    1.05535    1.05430   1.00
H2       0.74662    1.05916    0.95856   1.00
H2       0.76245    1.01712    0.98321   1.00
H2       0.74165    1.05585    1.00996   1.00
H2       0.79494    1.20156    1.01811   1.00
H2       0.77237    1.18881    1.06274   1.00
H2       0.82003    1.17334    1.05284   1.00
H2       0.71569    1.15544    1.03599   1.00
H2       0.72987    1.17122    0.98907   1.00
H2       0.71882    1.12157    0.99780   1.00
C4       0.64416    0.91198    0.91540   1.00
C4       0.68588    0.91241    0.91481   1.00
C3       0.62136    0.88058    0.90089   1.00
C3       0.70884    0.88318    0.89650   1.00
C3       0.62377    0.94491    0.93075   1.00
C3       0.70614    0.94360    0.93357   1.00
C2       0.55988    0.91417    0.91587   1.00
C2       0.77012    0.91583    0.91413   1.00
C3       0.58038    0.88171    0.90090   1.00
C3       0.74981    0.88462    0.89647   1.00
C3       0.58242    0.94517    0.93117   1.00
C3       0.74738    0.94539    0.93176   1.00
H1       0.63385    0.85590    0.89001   1.00
H1       0.69648    0.86010    0.88243   1.00
C5       0.64480    0.97727    0.94574   1.00
C5       0.68520    0.97303    0.95372   1.00
H1       0.56545    0.85825    0.88976   1.00
H1       0.76490    0.86249    0.88306   1.00
H1       0.56820    0.96851    0.94326   1.00
H1       0.76132    0.96918    0.94316   1.00
O3       0.62539    1.01140    0.95442   1.00
O3       0.70401    0.99885    0.97835   1.00
Si1      0.62253    1.04600    0.92178   1.00
Si1      0.71221    0.98582    1.02341   1.00
C6       0.58962    1.07623    0.94741   1.00
C6       0.66902    1.06776    0.91831   1.00
C6       0.60247    1.03020    0.87704   1.00
C6       0.69807    0.93842    1.03809   1.00
C6       0.76302    0.99060    1.02783   1.00
C6       0.69023    1.02107    1.05368   1.00
C6       0.55306    1.05532    0.96528   1.00
H2       0.60709    1.08550    0.97241   1.00
C6       0.57353    1.11483    0.92869   1.00
H2       0.68142    1.06139    0.94693   1.00
C6       0.69866    1.05092    0.88794   1.00
C6       0.67164    1.11312    0.91363   1.00
H2       0.57669    1.01402    0.88658   1.00
C6       0.58728    1.06241    0.84835   1.00
C6       0.62651    1.00177    0.85024   1.00
C6       0.65429    0.92656    1.03308   1.00
C6       0.72275    0.90236    1.02467   1.00
H2       0.70288    0.93941    1.06956   1.00
H2       0.77449    0.96689    1.00994   1.00
C6       0.78122    1.02877    1.01050   1.00
C6       0.78107    0.98528    1.06941   1.00
H2       0.71125    1.04501    1.05419   1.00
C6       0.65164    1.03963    1.03832   1.00
C6       0.68256    1.01013    1.09739   1.00
H2       0.56154    1.03121    0.98433   1.00
H2       0.53410    1.04365    0.94244   1.00
H2       0.53583    1.07540    0.98310   1.00
H2       0.56892    1.13685    0.95132   1.00
H2       0.59322    1.12729    0.90717   1.00
H2       0.54536    1.11051    0.91442   1.00
H2       0.72828    1.06098    0.89429   1.00
H2       0.69968    1.01920    0.88857   1.00
H2       0.69148    1.06034    0.85837   1.00
H2       0.65638    1.12815    0.93720   1.00
H2       0.70192    1.12318    0.91484   1.00
H2       0.65950    1.12253    0.88570   1.00
H2       0.60986    1.08411    0.84242   1.00
H2       0.57792    1.05015    0.82039   1.00
H2       0.56168    1.07706    0.85996   1.00
H2       0.64598    1.01748    0.83053   1.00
H2       0.64432    0.98125    0.86638   1.00
H2       0.60672    0.98451    0.83209   1.00
H2       0.64812    0.91652    1.00356   1.00
H2       0.64691    0.90258    1.05280   1.00
H2       0.63452    0.95049    1.03977   1.00
H2       0.71375    0.87609    1.04043   1.00
H2       0.71926    0.89620    0.99373   1.00
H2       0.75378    0.90614    1.03066   1.00
H2       0.81298    1.02610    1.00860   1.00
H2       0.77065    1.03432    0.98093   1.00
H2       0.77465    1.05430    1.02835   1.00
H2       0.77084    0.95856    1.08338   1.00
H2       0.81288    0.98321    1.06755   1.00
H2       0.77415    1.00996    1.08835   1.00
H2       0.62844    1.01811    1.03506   1.00
H2       0.64119    1.06274    1.05763   1.00
H2       0.65666    1.05284    1.00997   1.00
H2       0.67456    1.03599    1.11431   1.00
H2       0.65878    0.98907    1.10013   1.00
H2       0.70843    0.99780    1.11118   1.00
C4       1.18584    0.91198    0.91460   1.00
C4       1.14412    0.91241    0.91519   1.00
C3       1.20864    0.88058    0.92911   1.00
C3       1.12116    0.88318    0.93350   1.00
C3       1.20623    0.94491    0.89925   1.00
C3       1.12386    0.94360    0.89643   1.00
C2       1.27012    0.91417    0.91413   1.00
C2       1.05988    0.91583    0.91587   1.00
C3       1.24962    0.88171    0.92910   1.00
C3       1.08019    0.88462    0.93353   1.00
C3       1.24758    0.94517    0.89883   1.00
C3       1.08262    0.94539    0.89824   1.00
H1       1.19615    0.85590    0.93999   1.00
H1       1.13352    0.86010    0.94757   1.00
C5       1.18520    0.97727    0.88426   1.00
C5       1.14480    0.97303    0.87628   1.00
H1       1.26455    0.85825    0.94024   1.00
H1       1.06510    0.86249    0.94694   1.00
H1       1.26180    0.96851    0.88674   1.00
H1       1.06868    0.96918    0.88684   1.00
O3       1.20461    1.01140    0.87558   1.00
O3       1.12599    0.99885    0.85165   1.00
Si1      1.20747    1.04600    0.90822   1.00
Si1      1.11779    0.98582    0.80659   1.00
C6       1.24038    1.07623    0.88259   1.00
C6       1.16098    1.06776    0.91169   1.00
C6       1.22753    1.03020    0.95296   1.00
C6       1.13193    0.93842    0.79191   1.00
C6       1.06698    0.99060    0.80217   1.00
C6       1.13977    1.02107    0.77632   1.00
C6       1.27694    1.05532    0.86472   1.00
H2       1.22291    1.08550    0.85759   1.00
C6       1.25647    1.11483    0.90131   1.00
H2       1.14858    1.06139    0.88307   1.00
C6       1.13134    1.05092    0.94206   1.00
C6       1.15836    1.11312    0.91637   1.00
H2       1.25331    1.01402    0.94342   1.00
C6       1.24272    1.06241    0.98165   1.00
C6       1.20349    1.00177    0.97976   1.00
C6       1.17571    0.92656    0.79692   1.00
C6       1.10725    0.90236    0.80533   1.00
H2       1.12712    0.93941    0.76044   1.00
H2       1.05551    0.96689    0.82006   1.00
C6       1.04878    1.02877    0.81950   1.00
C6       1.04893    0.98528    0.76059   1.00
H2       1.11875    1.04501    0.77581   1.00
C6       1.17836    1.03963    0.79168   1.00
C6       1.14744    1.01013    0.73261   1.00
H2       1.26846    1.03121    0.84567   1.00
H2       1.29590    1.04365    0.88756   1.00
H2       1.29417    1.07540    0.84690   1.00
H2       1.26108    1.13685    0.87868   1.00
H2       1.23678    1.12729    0.92283   1.00
H2       1.28464    1.11051    0.91558   1.00
H2       1.10172    1.06098    0.93571   1.00
H2       1.13032    1.01920    0.94143   1.00
H2       1.13852    1.06034    0.97163   1.00
H2       1.17362    1.12815    0.89280   1.00
H2       1.12808    1.12318    0.91516   1.00
H2       1.17050    1.12253    0.94430   1.00
H2       1.22014    1.08411    0.98758   1.00
H2       1.25208    1.05015    1.00961   1.00
H2       1.26832    1.07706    0.97004   1.00
H2       1.18402    1.01748    0.99947   1.00
H2       1.18568    0.98125    0.96362   1.00
H2       1.22328    0.98451    0.99791   1.00
H2       1.18188    0.91652    0.82644   1.00
H2       1.18309    0.90258    0.77720   1.00
H2       1.19548    0.95049    0.79023   1.00
H2       1.11625    0.87609    0.78957   1.00
H2       1.11074    0.89620    0.83627   1.00
H2       1.07622    0.90614    0.79934   1.00
H2       1.01702    1.02610    0.82140   1.00
H2       1.05935    1.03432    0.84907   1.00
H2       1.05535    1.05430    0.80165   1.00
H2       1.05916    0.95856    0.74662   1.00
H2       1.01712    0.98321    0.76245   1.00
H2       1.05585    1.00996    0.74165   1.00
H2       1.20156    1.01811    0.79494   1.00
H2       1.18881    1.06274    0.77237   1.00
H2       1.17334    1.05284    0.82003   1.00
H2       1.15544    1.03599    0.71569   1.00
H2       1.17122    0.98907    0.72987   1.00
H2       1.12157    0.99780    0.71882   1.00
C4       0.91540    0.64416    0.91198   1.00
C4       0.91481    0.68588    0.91241   1.00
C3       0.90089    0.62136    0.88058   1.00
C3       0.89650    0.70884    0.88318   1.00
C3       0.93075    0.62377    0.94491   1.00
C3       0.93357    0.70614    0.94360   1.00
C2       0.91587    0.55988    0.91417   1.00
C2       0.91413    0.77012    0.91583   1.00
C3       0.90090    0.58038    0.88171   1.00
C3       0.89647    0.74981    0.88462   1.00
C3       0.93117    0.58242    0.94517   1.00
C3       0.93176    0.74738    0.94539   1.00
H1       0.89001    0.63385    0.85590   1.00
H1       0.88243    0.69648    0.86010   1.00
C5       0.94574    0.64480    0.97727   1.00
C5       0.95372    0.68520    0.97303   1.00
H1       0.88976    0.56545    0.85825   1.00
H1       0.88306    0.76490    0.86249   1.00
H1       0.94326    0.56820    0.96851   1.00
H1       0.94316    0.76132    0.96918   1.00
O3       0.95442    0.62539    1.01140   1.00
O3       0.97835    0.70401    0.99885   1.00
Si1      0.92178    0.62253    1.04600   1.00
Si1      1.02341    0.71221    0.98582   1.00
C6       0.94741    0.58962    1.07623   1.00
C6       0.91831    0.66902    1.06776   1.00
C6       0.87704    0.60247    1.03020   1.00
C6       1.03809    0.69807    0.93842   1.00
C6       1.02783    0.76302    0.99060   1.00
C6       1.05368    0.69023    1.02107   1.00
C6       0.96528    0.55306    1.05532   1.00
H2       0.97241    0.60709    1.08550   1.00
C6       0.92869    0.57353    1.11483   1.00
H2       0.94693    0.68142    1.06139   1.00
C6       0.88794    0.69866    1.05092   1.00
C6       0.91363    0.67164    1.11312   1.00
H2       0.88658    0.57669    1.01402   1.00
C6       0.84835    0.58728    1.06241   1.00
C6       0.85024    0.62651    1.00177   1.00
C6       1.03308    0.65429    0.92656   1.00
C6       1.02467    0.72275    0.90236   1.00
H2       1.06956    0.70288    0.93941   1.00
H2       1.00994    0.77449    0.96689   1.00
C6       1.01050    0.78122    1.02877   1.00
C6       1.06941    0.78107    0.98528   1.00
H2       1.05419    0.71125    1.04501   1.00
C6       1.03832    0.65164    1.03963   1.00
C6       1.09739    0.68256    1.01013   1.00
H2       0.98433    0.56154    1.03121   1.00
H2       0.94244    0.53410    1.04365   1.00
H2       0.98310    0.53583    1.07540   1.00
H2       0.95132    0.56892    1.13685   1.00
H2       0.90717    0.59322    1.12729   1.00
H2       0.91442    0.54536    1.11051   1.00
H2       0.89429    0.72828    1.06098   1.00
H2       0.88857    0.69968    1.01920   1.00
H2       0.85837    0.69148    1.06034   1.00
H2       0.93720    0.65638    1.12815   1.00
H2       0.91484    0.70192    1.12318   1.00
H2       0.88570    0.65950    1.12253   1.00
H2       0.84242    0.60986    1.08411   1.00
H2       0.82039    0.57792    1.05015   1.00
H2       0.85996    0.56168    1.07706   1.00
H2       0.83053    0.64598    1.01748   1.00
H2       0.86638    0.64432    0.98125   1.00
H2       0.83209    0.60672    0.98451   1.00
H2       1.00356    0.64812    0.91652   1.00
H2       1.05280    0.64691    0.90258   1.00
H2       1.03977    0.63452    0.95049   1.00
H2       1.04043    0.71375    0.87609   1.00
H2       0.99373    0.71926    0.89620   1.00
H2       1.03066    0.75378    0.90614   1.00
H2       1.00860    0.81298    1.02610   1.00
H2       0.98093    0.77065    1.03432   1.00
H2       1.02835    0.77465    1.05430   1.00
H2       1.08338    0.77084    0.95856   1.00
H2       1.06755    0.81288    0.98321   1.00
H2       1.08835    0.77415    1.00996   1.00
H2       1.03506    0.62844    1.01811   1.00
H2       1.05763    0.64119    1.06274   1.00
H2       1.00997    0.65666    1.05284   1.00
H2       1.11431    0.67456    1.03599   1.00
H2       1.10013    0.65878    0.98907   1.00
H2       1.11118    0.70843    0.99780   1.00
C4       0.91198    0.91540    0.64416   1.00
C4       0.91241    0.91481    0.68588   1.00
C3       0.88058    0.90089    0.62136   1.00
C3       0.88318    0.89650    0.70884   1.00
C3       0.94491    0.93075    0.62377   1.00
C3       0.94360    0.93357    0.70614   1.00
C2       0.91417    0.91587    0.55988   1.00
C2       0.91583    0.91413    0.77012   1.00
C3       0.88171    0.90090    0.58038   1.00
C3       0.88462    0.89647    0.74981   1.00
C3       0.94517    0.93117    0.58242   1.00
C3       0.94539    0.93176    0.74738   1.00
H1       0.85590    0.89001    0.63385   1.00
H1       0.86010    0.88243    0.69648   1.00
C5       0.97727    0.94574    0.64480   1.00
C5       0.97303    0.95372    0.68520   1.00
H1       0.85825    0.88976    0.56545   1.00
H1       0.86249    0.88306    0.76490   1.00
H1       0.96851    0.94326    0.56820   1.00
H1       0.96918    0.94316    0.76132   1.00
O3       1.01140    0.95442    0.62539   1.00
O3       0.99885    0.97835    0.70401   1.00
Si1      1.04600    0.92178    0.62253   1.00
Si1      0.98582    1.02341    0.71221   1.00
C6       1.07623    0.94741    0.58962   1.00
C6       1.06776    0.91831    0.66902   1.00
C6       1.03020    0.87704    0.60247   1.00
C6       0.93842    1.03809    0.69807   1.00
C6       0.99060    1.02783    0.76302   1.00
C6       1.02107    1.05368    0.69023   1.00
C6       1.05532    0.96528    0.55306   1.00
H2       1.08550    0.97241    0.60709   1.00
C6       1.11483    0.92869    0.57353   1.00
H2       1.06139    0.94693    0.68142   1.00
C6       1.05092    0.88794    0.69866   1.00
C6       1.11312    0.91363    0.67164   1.00
H2       1.01402    0.88658    0.57669   1.00
C6       1.06241    0.84835    0.58728   1.00
C6       1.00177    0.85024    0.62651   1.00
C6       0.92656    1.03308    0.65429   1.00
C6       0.90236    1.02467    0.72275   1.00
H2       0.93941    1.06956    0.70288   1.00
H2       0.96689    1.00994    0.77449   1.00
C6       1.02877    1.01050    0.78122   1.00
C6       0.98528    1.06941    0.78107   1.00
H2       1.04501    1.05419    0.71125   1.00
C6       1.03963    1.03832    0.65164   1.00
C6       1.01013    1.09739    0.68256   1.00
H2       1.03121    0.98433    0.56154   1.00
H2       1.04365    0.94244    0.53410   1.00
H2       1.07540    0.98310    0.53583   1.00
H2       1.13685    0.95132    0.56892   1.00
H2       1.12729    0.90717    0.59322   1.00
H2       1.11051    0.91442    0.54536   1.00
H2       1.06098    0.89429    0.72828   1.00
H2       1.01920    0.88857    0.69968   1.00
H2       1.06034    0.85837    0.69148   1.00
H2       1.12815    0.93720    0.65638   1.00
H2       1.12318    0.91484    0.70192   1.00
H2       1.12253    0.88570    0.65950   1.00
H2       1.08411    0.84242    0.60986   1.00
H2       1.05015    0.82039    0.57792   1.00
H2       1.07706    0.85996    0.56168   1.00
H2       1.01748    0.83053    0.64598   1.00
H2       0.98125    0.86638    0.64432   1.00
H2       0.98451    0.83209    0.60672   1.00
H2       0.91652    1.00356    0.64812   1.00
H2       0.90258    1.05280    0.64691   1.00
H2       0.95049    1.03977    0.63452   1.00
H2       0.87609    1.04043    0.71375   1.00
H2       0.89620    0.99373    0.71926   1.00
H2       0.90614    1.03066    0.75378   1.00
H2       1.02610    1.00860    0.81298   1.00
H2       1.03432    0.98093    0.77065   1.00
H2       1.05430    1.02835    0.77465   1.00
H2       0.95856    1.08338    0.77084   1.00
H2       0.98321    1.06755    0.81288   1.00
H2       1.00996    1.08835    0.77415   1.00
H2       1.01811    1.03506    0.62844   1.00
H2       1.06274    1.05763    0.64119   1.00
H2       1.05284    1.00997    0.65666   1.00
H2       1.03599    1.11431    0.67456   1.00
H2       0.98907    1.10013    0.65878   1.00
H2       0.99780    1.11118    0.70843   1.00
C4       0.41198    0.41460    1.18584   1.00
C4       0.41241    0.41519    1.14412   1.00
C3       0.38058    0.42911    1.20864   1.00
C3       0.38318    0.43350    1.12116   1.00
C3       0.44491    0.39925    1.20623   1.00
C3       0.44360    0.39643    1.12386   1.00
C2       0.41417    0.41413    1.27012   1.00
C2       0.41583    0.41587    1.05988   1.00
C3       0.38171    0.42910    1.24962   1.00
C3       0.38462    0.43353    1.08019   1.00
C3       0.44517    0.39883    1.24758   1.00
C3       0.44539    0.39824    1.08262   1.00
H1       0.35590    0.43999    1.19615   1.00
H1       0.36010    0.44757    1.13352   1.00
C5       0.47727    0.38426    1.18520   1.00
C5       0.47303    0.37628    1.14480   1.00
H1       0.35825    0.44024    1.26455   1.00
H1       0.36249    0.44694    1.06510   1.00
H1       0.46851    0.38674    1.26180   1.00
H1       0.46918    0.38684    1.06868   1.00
O3       0.51140    0.37558    1.20461   1.00
O3       0.49885    0.35165    1.12599   1.00
Si1      0.54600    0.40822    1.20747   1.00
Si1      0.48582    0.30659    1.11779   1.00
C6       0.57623    0.38259    1.24038   1.00
C6       0.56776    0.41169    1.16098   1.00
C6       0.53020    0.45296    1.22753   1.00
C6       0.43842    0.29191    1.13193   1.00
C6       0.49060    0.30217    1.06698   1.00
C6       0.52107    0.27632    1.13977   1.00
C6       0.55532    0.36472    1.27694   1.00
H2       0.58550    0.35759    1.22291   1.00
C6       0.61483    0.40131    1.25647   1.00
H2       0.56139    0.38307    1.14858   1.00
C6       0.55092    0.44206    1.13134   1.00
C6       0.61312    0.41637    1.15836   1.00
H2       0.51402    0.44342    1.25331   1.00
C6       0.56241    0.48165    1.24272   1.00
C6       0.50177    0.47976    1.20349   1.00
C6       0.42656    0.29692    1.17571   1.00
C6       0.40236    0.30533    1.10725   1.00
H2       0.43941    0.26044    1.12712   1.00
H2       0.46689    0.32006    1.05551   1.00
C6       0.52877    0.31950    1.04878   1.00
C6       0.48528    0.26059    1.04893   1.00
H2       0.54501    0.27581    1.11875   1.00
C6       0.53963    0.29168    1.17836   1.00
C6       0.51013    0.23261    1.14744   1.00
H2       0.53121    0.34567    1.26846   1.00
H2       0.54365    0.38756    1.29590   1.00
H2       0.57540    0.34690    1.29417   1.00
H2       0.63685    0.37868    1.26108   1.00
H2       0.62729    0.42283    1.23678   1.00
H2       0.61051    0.41558    1.28464   1.00
H2       0.56098    0.43571    1.10172   1.00
H2       0.51920    0.44143    1.13032   1.00
H2       0.56034    0.47163    1.13852   1.00
H2       0.62815    0.39280    1.17362   1.00
H2       0.62318    0.41516    1.12808   1.00
H2       0.62253    0.44430    1.17050   1.00
H2       0.58411    0.48758    1.22014   1.00
H2       0.55015    0.50961    1.25208   1.00
H2       0.57706    0.47004    1.26832   1.00
H2       0.51748    0.49947    1.18402   1.00
H2       0.48125    0.46362    1.18568   1.00
H2       0.48451    0.49791    1.22328   1.00
H2       0.41652    0.32644    1.18188   1.00
H2       0.40258    0.27720    1.18309   1.00
H2       0.45049    0.29023    1.19548   1.00
H2       0.37609    0.28957    1.11625   1.00
H2       0.39620    0.33627    1.11074   1.00
H2       0.40614    0.29934    1.07622   1.00
H2       0.52610    0.32140    1.01702   1.00
H2       0.53432    0.34907    1.05935   1.00
H2       0.55430    0.30165    1.05535   1.00
H2       0.45856    0.24662    1.05916   1.00
H2       0.48321    0.26245    1.01712   1.00
H2       0.50996    0.24165    1.05585   1.00
H2       0.51811    0.29494    1.20156   1.00
H2       0.56274    0.27237    1.18881   1.00
H2       0.55284    0.32003    1.17334   1.00
H2       0.53599    0.21569    1.15544   1.00
H2       0.48907    0.22987    1.17122   1.00
H2       0.49780    0.21882    1.12157   1.00
C4       0.41460    0.68584    0.91198   1.00
C4       0.41519    0.64412    0.91241   1.00
C3       0.42911    0.70864    0.88058   1.00
C3       0.43350    0.62116    0.88318   1.00
C3       0.39925    0.70623    0.94491   1.00
C3       0.39643    0.62386    0.94360   1.00
C2       0.41413    0.77012    0.91417   1.00
C2       0.41587    0.55988    0.91583   1.00
C3       0.42910    0.74962    0.88171   1.00
C3       0.43353    0.58019    0.88462   1.00
C3       0.39883    0.74758    0.94517   1.00
C3       0.39824    0.58262    0.94539   1.00
H1       0.43999    0.69615    0.85590   1.00
H1       0.44757    0.63352    0.86010   1.00
C5       0.38426    0.68520    0.97727   1.00
C5       0.37628    0.64480    0.97303   1.00
H1       0.44024    0.76455    0.85825   1.00
H1       0.44694    0.56510    0.86249   1.00
H1       0.38674    0.76180    0.96851   1.00
H1       0.38684    0.56868    0.96918   1.00
O3       0.37558    0.70461    1.01140   1.00
O3       0.35165    0.62599    0.99885   1.00
Si1      0.40822    0.70747    1.04600   1.00
Si1      0.30659    0.61779    0.98582   1.00
C6       0.38259    0.74038    1.07623   1.00
C6       0.41169    0.66098    1.06776   1.00
C6       0.45296    0.72753    1.03020   1.00
C6       0.29191    0.63193    0.93842   1.00
C6       0.30217    0.56698    0.99060   1.00
C6       0.27632    0.63977    1.02107   1.00
C6       0.36472    0.77694    1.05532   1.00
H2       0.35759    0.72291    1.08550   1.00
C6       0.40131    0.75647    1.11483   1.00
H2       0.38307    0.64858    1.06139   1.00
C6       0.44206    0.63134    1.05092   1.00
C6       0.41637    0.65836    1.11312   1.00
H2       0.44342    0.75331    1.01402   1.00
C6       0.48165    0.74272    1.06241   1.00
C6       0.47976    0.70349    1.00177   1.00
C6       0.29692    0.67571    0.92656   1.00
C6       0.30533    0.60725    0.90236   1.00
H2       0.26044    0.62712    0.93941   1.00
H2       0.32006    0.55551    0.96689   1.00
C6       0.31950    0.54878    1.02877   1.00
C6       0.26059    0.54893    0.98528   1.00
H2       0.27581    0.61875    1.04501   1.00
C6       0.29168    0.67836    1.03963   1.00
C6       0.23261    0.64744    1.01013   1.00
H2       0.34567    0.76846    1.03121   1.00
H2       0.38756    0.79590    1.04365   1.00
H2       0.34690    0.79417    1.07540   1.00
H2       0.37868    0.76108    1.13685   1.00
H2       0.42283    0.73678    1.12729   1.00
H2       0.41558    0.78464    1.11051   1.00
H2       0.43571    0.60172    1.06098   1.00
H2       0.44143    0.63032    1.01920   1.00
H2       0.47163    0.63852    1.06034   1.00
H2       0.39280    0.67362    1.12815   1.00
H2       0.41516    0.62808    1.12318   1.00
H2       0.44430    0.67050    1.12253   1.00
H2       0.48758    0.72014    1.08411   1.00
H2       0.50961    0.75208    1.05015   1.00
H2       0.47004    0.76832    1.07706   1.00
H2       0.49947    0.68402    1.01748   1.00
H2       0.46362    0.68568    0.98125   1.00
H2       0.49791    0.72328    0.98451   1.00
H2       0.32644    0.68188    0.91652   1.00
H2       0.27720    0.68309    0.90258   1.00
H2       0.29023    0.69548    0.95049   1.00
H2       0.28957    0.61625    0.87609   1.00
H2       0.33627    0.61074    0.89620   1.00
H2       0.29934    0.57622    0.90614   1.00
H2       0.32140    0.51702    1.02610   1.00
H2       0.34907    0.55935    1.03432   1.00
H2       0.30165    0.55535    1.05430   1.00
H2       0.24662    0.55916    0.95856   1.00
H2       0.26245    0.51712    0.98321   1.00
H2       0.24165    0.55585    1.00996   1.00
H2       0.29494    0.70156    1.01811   1.00
H2       0.27237    0.68881    1.06274   1.00
H2       0.32003    0.67334    1.05284   1.00
H2       0.21569    0.65544    1.03599   1.00
H2       0.22987    0.67122    0.98907   1.00
H2       0.21882    0.62157    0.99780   1.00
C4       0.14416    0.41198    0.91540   1.00
C4       0.18588    0.41241    0.91481   1.00
C3       0.12136    0.38058    0.90089   1.00
C3       0.20884    0.38318    0.89650   1.00
C3       0.12377    0.44491    0.93075   1.00
C3       0.20614    0.44360    0.93357   1.00
C2       0.05988    0.41417    0.91587   1.00
C2       0.27012    0.41583    0.91413   1.00
C3       0.08038    0.38171    0.90090   1.00
C3       0.24981    0.38462    0.89647   1.00
C3       0.08242    0.44517    0.93117   1.00
C3       0.24738    0.44539    0.93176   1.00
H1       0.13385    0.35590    0.89001   1.00
H1       0.19648    0.36010    0.88243   1.00
C5       0.14480    0.47727    0.94574   1.00
C5       0.18520    0.47303    0.95372   1.00
H1       0.06545    0.35825    0.88976   1.00
H1       0.26490    0.36249    0.88306   1.00
H1       0.06820    0.46851    0.94326   1.00
H1       0.26132    0.46918    0.94316   1.00
O3       0.12539    0.51140    0.95442   1.00
O3       0.20401    0.49885    0.97835   1.00
Si1      0.12253    0.54600    0.92178   1.00
Si1      0.21221    0.48582    1.02341   1.00
C6       0.08962    0.57623    0.94741   1.00
C6       0.16902    0.56776    0.91831   1.00
C6       0.10247    0.53020    0.87704   1.00
C6       0.19807    0.43842    1.03809   1.00
C6       0.26302    0.49060    1.02783   1.00
C6       0.19023    0.52107    1.05368   1.00
C6       0.05306    0.55532    0.96528   1.00
H2       0.10709    0.58550    0.97241   1.00
C6       0.07353    0.61483    0.92869   1.00
H2       0.18142    0.56139    0.94693   1.00
C6       0.19866    0.55092    0.88794   1.00
C6       0.17164    0.61312    0.91363   1.00
H2       0.07669    0.51402    0.88658   1.00
C6       0.08728    0.56241    0.84835   1.00
C6       0.12651    0.50177    0.85024   1.00
C6       0.15429    0.42656    1.03308   1.00
C6       0.22275    0.40236    1.02467   1.00
H2       0.20288    0.43941    1.06956   1.00
H2       0.27449    0.46689    1.00994   1.00
C6       0.28122    0.52877    1.01050   1.00
C6       0.28107    0.48528    1.06941   1.00
H2       0.21125    0.54501    1.05419   1.00
C6       0.15164    0.53963    1.03832   1.00
C6       0.18256    0.51013    1.09739   1.00
H2       0.06154    0.53121    0.98433   1.00
H2       0.03410    0.54365    0.94244   1.00
H2       0.03583    0.57540    0.98310   1.00
H2       0.06892    0.63685    0.95132   1.00
H2       0.09322    0.62729    0.90717   1.00
H2       0.04536    0.61051    0.91442   1.00
H2       0.22828    0.56098    0.89429   1.00
H2       0.19968    0.51920    0.88857   1.00
H2       0.19148    0.56034    0.85837   1.00
H2       0.15638    0.62815    0.93720   1.00
H2       0.20192    0.62318    0.91484   1.00
H2       0.15950    0.62253    0.88570   1.00
H2       0.10986    0.58411    0.84242   1.00
H2       0.07792    0.55015    0.82039   1.00
H2       0.06168    0.57706    0.85996   1.00
H2       0.14598    0.51748    0.83053   1.00
H2       0.14432    0.48125    0.86638   1.00
H2       0.10672    0.48451    0.83209   1.00
H2       0.14812    0.41652    1.00356   1.00
H2       0.14691    0.40258    1.05280   1.00
H2       0.13452    0.45049    1.03977   1.00
H2       0.21375    0.37609    1.04043   1.00
H2       0.21926    0.39620    0.99373   1.00
H2       0.25378    0.40614    1.03066   1.00
H2       0.31298    0.52610    1.00860   1.00
H2       0.27065    0.53432    0.98093   1.00
H2       0.27465    0.55430    1.02835   1.00
H2       0.27084    0.45856    1.08338   1.00
H2       0.31288    0.48321    1.06755   1.00
H2       0.27415    0.50996    1.08835   1.00
H2       0.12844    0.51811    1.03506   1.00
H2       0.14119    0.56274    1.05763   1.00
H2       0.15666    0.55284    1.00997   1.00
H2       0.17456    0.53599    1.11431   1.00
H2       0.15878    0.48907    1.10013   1.00
H2       0.20843    0.49780    1.11118   1.00
C4       0.68584    0.41198    0.91460   1.00
C4       0.64412    0.41241    0.91519   1.00
C3       0.70864    0.38058    0.92911   1.00
C3       0.62116    0.38318    0.93350   1.00
C3       0.70623    0.44491    0.89925   1.00
C3       0.62386    0.44360    0.89643   1.00
C2       0.77012    0.41417    0.91413   1.00
C2       0.55988    0.41583    0.91587   1.00
C3       0.74962    0.38171    0.92910   1.00
C3       0.58019    0.38462    0.93353   1.00
C3       0.74758    0.44517    0.89883   1.00
C3       0.58262    0.44539    0.89824   1.00
H1       0.69615    0.35590    0.93999   1.00
H1       0.63352    0.36010    0.94757   1.00
C5       0.68520    0.47727    0.88426   1.00
C5       0.64480    0.47303    0.87628   1.00
H1       0.76455    0.35825    0.94024   1.00
H1       0.56510    0.36249    0.94694   1.00
H1       0.76180    0.46851    0.88674   1.00
H1       0.56868    0.46918    0.88684   1.00
O3       0.70461    0.51140    0.87558   1.00
O3       0.62599    0.49885    0.85165   1.00
Si1      0.70747    0.54600    0.90822   1.00
Si1      0.61779    0.48582    0.80659   1.00
C6       0.74038    0.57623    0.88259   1.00
C6       0.66098    0.56776    0.91169   1.00
C6       0.72753    0.53020    0.95296   1.00
C6       0.63193    0.43842    0.79191   1.00
C6       0.56698    0.49060    0.80217   1.00
C6       0.63977    0.52107    0.77632   1.00
C6       0.77694    0.55532    0.86472   1.00
H2       0.72291    0.58550    0.85759   1.00
C6       0.75647    0.61483    0.90131   1.00
H2       0.64858    0.56139    0.88307   1.00
C6       0.63134    0.55092    0.94206   1.00
C6       0.65836    0.61312    0.91637   1.00
H2       0.75331    0.51402    0.94342   1.00
C6       0.74272    0.56241    0.98165   1.00
C6       0.70349    0.50177    0.97976   1.00
C6       0.67571    0.42656    0.79692   1.00
C6       0.60725    0.40236    0.80533   1.00
H2       0.62712    0.43941    0.76044   1.00
H2       0.55551    0.46689    0.82006   1.00
C6       0.54878    0.52877    0.81950   1.00
C6       0.54893    0.48528    0.76059   1.00
H2       0.61875    0.54501    0.77581   1.00
C6       0.67836    0.53963    0.79168   1.00
C6       0.64744    0.51013    0.73261   1.00
H2       0.76846    0.53121    0.84567   1.00
H2       0.79590    0.54365    0.88756   1.00
H2       0.79417    0.57540    0.84690   1.00
H2       0.76108    0.63685    0.87868   1.00
H2       0.73678    0.62729    0.92283   1.00
H2       0.78464    0.61051    0.91558   1.00
H2       0.60172    0.56098    0.93571   1.00
H2       0.63032    0.51920    0.94143   1.00
H2       0.63852    0.56034    0.97163   1.00
H2       0.67362    0.62815    0.89280   1.00
H2       0.62808    0.62318    0.91516   1.00
H2       0.67050    0.62253    0.94430   1.00
H2       0.72014    0.58411    0.98758   1.00
H2       0.75208    0.55015    1.00961   1.00
H2       0.76832    0.57706    0.97004   1.00
H2       0.68402    0.51748    0.99947   1.00
H2       0.68568    0.48125    0.96362   1.00
H2       0.72328    0.48451    0.99791   1.00
H2       0.68188    0.41652    0.82644   1.00
H2       0.68309    0.40258    0.77720   1.00
H2       0.69548    0.45049    0.79023   1.00
H2       0.61625    0.37609    0.78957   1.00
H2       0.61074    0.39620    0.83627   1.00
H2       0.57622    0.40614    0.79934   1.00
H2       0.51702    0.52610    0.82140   1.00
H2       0.55935    0.53432    0.84907   1.00
H2       0.55535    0.55430    0.80165   1.00
H2       0.55916    0.45856    0.74662   1.00
H2       0.51712    0.48321    0.76245   1.00
H2       0.55585    0.50996    0.74165   1.00
H2       0.70156    0.51811    0.79494   1.00
H2       0.68881    0.56274    0.77237   1.00
H2       0.67334    0.55284    0.82003   1.00
H2       0.65544    0.53599    0.71569   1.00
H2       0.67122    0.48907    0.72987   1.00
H2       0.62157    0.49780    0.71882   1.00
C4       0.41540    0.14416    0.91198   1.00
C4       0.41481    0.18588    0.91241   1.00
C3       0.40089    0.12136    0.88058   1.00
C3       0.39650    0.20884    0.88318   1.00
C3       0.43075    0.12377    0.94491   1.00
C3       0.43357    0.20614    0.94360   1.00
C2       0.41587    0.05988    0.91417   1.00
C2       0.41413    0.27012    0.91583   1.00
C3       0.40090    0.08038    0.88171   1.00
C3       0.39647    0.24981    0.88462   1.00
C3       0.43117    0.08242    0.94517   1.00
C3       0.43176    0.24738    0.94539   1.00
H1       0.39001    0.13385    0.85590   1.00
H1       0.38243    0.19648    0.86010   1.00
C5       0.44574    0.14480    0.97727   1.00
C5       0.45372    0.18520    0.97303   1.00
H1       0.38976    0.06545    0.85825   1.00
H1       0.38306    0.26490    0.86249   1.00
H1       0.44326    0.06820    0.96851   1.00
H1       0.44316    0.26132    0.96918   1.00
O3       0.45442    0.12539    1.01140   1.00
O3       0.47835    0.20401    0.99885   1.00
Si1      0.42178    0.12253    1.04600   1.00
Si1      0.52341    0.21221    0.98582   1.00
C6       0.44741    0.08962    1.07623   1.00
C6       0.41831    0.16902    1.06776   1.00
C6       0.37704    0.10247    1.03020   1.00
C6       0.53809    0.19807    0.93842   1.00
C6       0.52783    0.26302    0.99060   1.00
C6       0.55368    0.19023    1.02107   1.00
C6       0.46528    0.05306    1.05532   1.00
H2       0.47241    0.10709    1.08550   1.00
C6       0.42869    0.07353    1.11483   1.00
H2       0.44693    0.18142    1.06139   1.00
C6       0.38794    0.19866    1.05092   1.00
C6       0.41363    0.17164    1.11312   1.00
H2       0.38658    0.07669    1.01402   1.00
C6       0.34835    0.08728    1.06241   1.00
C6       0.35024    0.12651    1.00177   1.00
C6       0.53308    0.15429    0.92656   1.00
C6       0.52467    0.22275    0.90236   1.00
H2       0.56956    0.20288    0.93941   1.00
H2       0.50994    0.27449    0.96689   1.00
C6       0.51050    0.28122    1.02877   1.00
C6       0.56941    0.28107    0.98528   1.00
H2       0.55419    0.21125    1.04501   1.00
C6       0.53832    0.15164    1.03963   1.00
C6       0.59739    0.18256    1.01013   1.00
H2       0.48433    0.06154    1.03121   1.00
H2       0.44244    0.03410    1.04365   1.00
H2       0.48310    0.03583    1.07540   1.00
H2       0.45132    0.06892    1.13685   1.00
H2       0.40717    0.09322    1.12729   1.00
H2       0.41442    0.04536    1.11051   1.00
H2       0.39429    0.22828    1.06098   1.00
H2       0.38857    0.19968    1.01920   1.00
H2       0.35837    0.19148    1.06034   1.00
H2       0.43720    0.15638    1.12815   1.00
H2       0.41484    0.20192    1.12318   1.00
H2       0.38570    0.15950    1.12253   1.00
H2       0.34242    0.10986    1.08411   1.00
H2       0.32039    0.07792    1.05015   1.00
H2       0.35996    0.06168    1.07706   1.00
H2       0.33053    0.14598    1.01748   1.00
H2       0.36638    0.14432    0.98125   1.00
H2       0.33209    0.10672    0.98451   1.00
H2       0.50356    0.14812    0.91652   1.00
H2       0.55280    0.14691    0.90258   1.00
H2       0.53977    0.13452    0.95049   1.00
H2       0.54043    0.21375    0.87609   1.00
H2       0.49373    0.21926    0.89620   1.00
H2       0.53066    0.25378    0.90614   1.00
H2       0.50860    0.31298    1.02610   1.00
H2       0.48093    0.27065    1.03432   1.00
H2       0.52835    0.27465    1.05430   1.00
H2       0.58338    0.27084    0.95856   1.00
H2       0.56755    0.31288    0.98321   1.00
H2       0.58835    0.27415    1.00996   1.00
H2       0.53506    0.12844    1.01811   1.00
H2       0.55763    0.14119    1.06274   1.00
H2       0.50997    0.15666    1.05284   1.00
H2       0.61431    0.17456    1.03599   1.00
H2       0.60013    0.15878    0.98907   1.00
H2       0.61118    0.20843    0.99780   1.00
C4       0.41198    0.41540    0.64416   1.00
C4       0.41241    0.41481    0.68588   1.00
C3       0.38058    0.40089    0.62136   1.00
C3       0.38318    0.39650    0.70884   1.00
C3       0.44491    0.43075    0.62377   1.00
C3       0.44360    0.43357    0.70614   1.00
C2       0.41417    0.41587    0.55988   1.00
C2       0.41583    0.41413    0.77012   1.00
C3       0.38171    0.40090    0.58038   1.00
C3       0.38462    0.39647    0.74981   1.00
C3       0.44517    0.43117    0.58242   1.00
C3       0.44539    0.43176    0.74738   1.00
H1       0.35590    0.39001    0.63385   1.00
H1       0.36010    0.38243    0.69648   1.00
C5       0.47727    0.44574    0.64480   1.00
C5       0.47303    0.45372    0.68520   1.00
H1       0.35825    0.38976    0.56545   1.00
H1       0.36249    0.38306    0.76490   1.00
H1       0.46851    0.44326    0.56820   1.00
H1       0.46918    0.44316    0.76132   1.00
O3       0.51140    0.45442    0.62539   1.00
O3       0.49885    0.47835    0.70401   1.00
Si1      0.54600    0.42178    0.62253   1.00
Si1      0.48582    0.52341    0.71221   1.00
C6       0.57623    0.44741    0.58962   1.00
C6       0.56776    0.41831    0.66902   1.00
C6       0.53020    0.37704    0.60247   1.00
C6       0.43842    0.53809    0.69807   1.00
C6       0.49060    0.52783    0.76302   1.00
C6       0.52107    0.55368    0.69023   1.00
C6       0.55532    0.46528    0.55306   1.00
H2       0.58550    0.47241    0.60709   1.00
C6       0.61483    0.42869    0.57353   1.00
H2       0.56139    0.44693    0.68142   1.00
C6       0.55092    0.38794    0.69866   1.00
C6       0.61312    0.41363    0.67164   1.00
H2       0.51402    0.38658    0.57669   1.00
C6       0.56241    0.34835    0.58728   1.00
C6       0.50177    0.35024    0.62651   1.00
C6       0.42656    0.53308    0.65429   1.00
C6       0.40236    0.52467    0.72275   1.00
H2       0.43941    0.56956    0.70288   1.00
H2       0.46689    0.50994    0.77449   1.00
C6       0.52877    0.51050    0.78122   1.00
C6       0.48528    0.56941    0.78107   1.00
H2       0.54501    0.55419    0.71125   1.00
C6       0.53963    0.53832    0.65164   1.00
C6       0.51013    0.59739    0.68256   1.00
H2       0.53121    0.48433    0.56154   1.00
H2       0.54365    0.44244    0.53410   1.00
H2       0.57540    0.48310    0.53583   1.00
H2       0.63685    0.45132    0.56892   1.00
H2       0.62729    0.40717    0.59322   1.00
H2       0.61051    0.41442    0.54536   1.00
H2       0.56098    0.39429    0.72828   1.00
H2       0.51920    0.38857    0.69968   1.00
H2       0.56034    0.35837    0.69148   1.00
H2       0.62815    0.43720    0.65638   1.00
H2       0.62318    0.41484    0.70192   1.00
H2       0.62253    0.38570    0.65950   1.00
H2       0.58411    0.34242    0.60986   1.00
H2       0.55015    0.32039    0.57792   1.00
H2       0.57706    0.35996    0.56168   1.00
H2       0.51748    0.33053    0.64598   1.00
H2       0.48125    0.36638    0.64432   1.00
H2       0.48451    0.33209    0.60672   1.00
H2       0.41652    0.50356    0.64812   1.00
H2       0.40258    0.55280    0.64691   1.00
H2       0.45049    0.53977    0.63452   1.00
H2       0.37609    0.54043    0.71375   1.00
H2       0.39620    0.49373    0.71926   1.00
H2       0.40614    0.53066    0.75378   1.00
H2       0.52610    0.50860    0.81298   1.00
H2       0.53432    0.48093    0.77065   1.00
H2       0.55430    0.52835    0.77465   1.00
H2       0.45856    0.58338    0.77084   1.00
H2       0.48321    0.56755    0.81288   1.00
H2       0.50996    0.58835    0.77415   1.00
H2       0.51811    0.53506    0.62844   1.00
H2       0.56274    0.55763    0.64119   1.00
H2       0.55284    0.50997    0.65666   1.00
H2       0.53599    0.61431    0.67456   1.00
H2       0.48907    0.60013    0.65878   1.00
H2       0.49780    0.61118    0.70843   1.00
C4       0.41198    0.91460    0.68584   1.00
C4       0.41241    0.91519    0.64412   1.00
C3       0.38058    0.92911    0.70864   1.00
C3       0.38318    0.93350    0.62116   1.00
C3       0.44491    0.89925    0.70623   1.00
C3       0.44360    0.89643    0.62386   1.00
C2       0.41417    0.91413    0.77012   1.00
C2       0.41583    0.91587    0.55988   1.00
C3       0.38171    0.92910    0.74962   1.00
C3       0.38462    0.93353    0.58019   1.00
C3       0.44517    0.89883    0.74758   1.00
C3       0.44539    0.89824    0.58262   1.00
H1       0.35590    0.93999    0.69615   1.00
H1       0.36010    0.94757    0.63352   1.00
C5       0.47727    0.88426    0.68520   1.00
C5       0.47303    0.87628    0.64480   1.00
H1       0.35825    0.94024    0.76455   1.00
H1       0.36249    0.94694    0.56510   1.00
H1       0.46851    0.88674    0.76180   1.00
H1       0.46918    0.88684    0.56868   1.00
O3       0.51140    0.87558    0.70461   1.00
O3       0.49885    0.85165    0.62599   1.00
Si1      0.54600    0.90822    0.70747   1.00
Si1      0.48582    0.80659    0.61779   1.00
C6       0.57623    0.88259    0.74038   1.00
C6       0.56776    0.91169    0.66098   1.00
C6       0.53020    0.95296    0.72753   1.00
C6       0.43842    0.79191    0.63193   1.00
C6       0.49060    0.80217    0.56698   1.00
C6       0.52107    0.77632    0.63977   1.00
C6       0.55532    0.86472    0.77694   1.00
H2       0.58550    0.85759    0.72291   1.00
C6       0.61483    0.90131    0.75647   1.00
H2       0.56139    0.88307    0.64858   1.00
C6       0.55092    0.94206    0.63134   1.00
C6       0.61312    0.91637    0.65836   1.00
H2       0.51402    0.94342    0.75331   1.00
C6       0.56241    0.98165    0.74272   1.00
C6       0.50177    0.97976    0.70349   1.00
C6       0.42656    0.79692    0.67571   1.00
C6       0.40236    0.80533    0.60725   1.00
H2       0.43941    0.76044    0.62712   1.00
H2       0.46689    0.82006    0.55551   1.00
C6       0.52877    0.81950    0.54878   1.00
C6       0.48528    0.76059    0.54893   1.00
H2       0.54501    0.77581    0.61875   1.00
C6       0.53963    0.79168    0.67836   1.00
C6       0.51013    0.73261    0.64744   1.00
H2       0.53121    0.84567    0.76846   1.00
H2       0.54365    0.88756    0.79590   1.00
H2       0.57540    0.84690    0.79417   1.00
H2       0.63685    0.87868    0.76108   1.00
H2       0.62729    0.92283    0.73678   1.00
H2       0.61051    0.91558    0.78464   1.00
H2       0.56098    0.93571    0.60172   1.00
H2       0.51920    0.94143    0.63032   1.00
H2       0.56034    0.97163    0.63852   1.00
H2       0.62815    0.89280    0.67362   1.00
H2       0.62318    0.91516    0.62808   1.00
H2       0.62253    0.94430    0.67050   1.00
H2       0.58411    0.98758    0.72014   1.00
H2       0.55015    1.00961    0.75208   1.00
H2       0.57706    0.97004    0.76832   1.00
H2       0.51748    0.99947    0.68402   1.00
H2       0.48125    0.96362    0.68568   1.00
H2       0.48451    0.99791    0.72328   1.00
H2       0.41652    0.82644    0.68188   1.00
H2       0.40258    0.77720    0.68309   1.00
H2       0.45049    0.79023    0.69548   1.00
H2       0.37609    0.78957    0.61625   1.00
H2       0.39620    0.83627    0.61074   1.00
H2       0.40614    0.79934    0.57622   1.00
H2       0.52610    0.82140    0.51702   1.00
H2       0.53432    0.84907    0.55935   1.00
H2       0.55430    0.80165    0.55535   1.00
H2       0.45856    0.74662    0.55916   1.00
H2       0.48321    0.76245    0.51712   1.00
H2       0.50996    0.74165    0.55585   1.00
H2       0.51811    0.79494    0.70156   1.00
H2       0.56274    0.77237    0.68881   1.00
H2       0.55284    0.82003    0.67334   1.00
H2       0.53599    0.71569    0.65544   1.00
H2       0.48907    0.72987    0.67122   1.00
H2       0.49780    0.71882    0.62157   1.00
C4       0.41460    1.18584    0.41198   1.00
C4       0.41519    1.14412    0.41241   1.00
C3       0.42911    1.20864    0.38058   1.00
C3       0.43350    1.12116    0.38318   1.00
C3       0.39925    1.20623    0.44491   1.00
C3       0.39643    1.12386    0.44360   1.00
C2       0.41413    1.27012    0.41417   1.00
C2       0.41587    1.05988    0.41583   1.00
C3       0.42910    1.24962    0.38171   1.00
C3       0.43353    1.08019    0.38462   1.00
C3       0.39883    1.24758    0.44517   1.00
C3       0.39824    1.08262    0.44539   1.00
H1       0.43999    1.19615    0.35590   1.00
H1       0.44757    1.13352    0.36010   1.00
C5       0.38426    1.18520    0.47727   1.00
C5       0.37628    1.14480    0.47303   1.00
H1       0.44024    1.26455    0.35825   1.00
H1       0.44694    1.06510    0.36249   1.00
H1       0.38674    1.26180    0.46851   1.00
H1       0.38684    1.06868    0.46918   1.00
O3       0.37558    1.20461    0.51140   1.00
O3       0.35165    1.12599    0.49885   1.00
Si1      0.40822    1.20747    0.54600   1.00
Si1      0.30659    1.11779    0.48582   1.00
C6       0.38259    1.24038    0.57623   1.00
C6       0.41169    1.16098    0.56776   1.00
C6       0.45296    1.22753    0.53020   1.00
C6       0.29191    1.13193    0.43842   1.00
C6       0.30217    1.06698    0.49060   1.00
C6       0.27632    1.13977    0.52107   1.00
C6       0.36472    1.27694    0.55532   1.00
H2       0.35759    1.22291    0.58550   1.00
C6       0.40131    1.25647    0.61483   1.00
H2       0.38307    1.14858    0.56139   1.00
C6       0.44206    1.13134    0.55092   1.00
C6       0.41637    1.15836    0.61312   1.00
H2       0.44342    1.25331    0.51402   1.00
C6       0.48165    1.24272    0.56241   1.00
C6       0.47976    1.20349    0.50177   1.00
C6       0.29692    1.17571    0.42656   1.00
C6       0.30533    1.10725    0.40236   1.00
H2       0.26044    1.12712    0.43941   1.00
H2       0.32006    1.05551    0.46689   1.00
C6       0.31950    1.04878    0.52877   1.00
C6       0.26059    1.04893    0.48528   1.00
H2       0.27581    1.11875    0.54501   1.00
C6       0.29168    1.17836    0.53963   1.00
C6       0.23261    1.14744    0.51013   1.00
H2       0.34567    1.26846    0.53121   1.00
H2       0.38756    1.29590    0.54365   1.00
H2       0.34690    1.29417    0.57540   1.00
H2       0.37868    1.26108    0.63685   1.00
H2       0.42283    1.23678    0.62729   1.00
H2       0.41558    1.28464    0.61051   1.00
H2       0.43571    1.10172    0.56098   1.00
H2       0.44143    1.13032    0.51920   1.00
H2       0.47163    1.13852    0.56034   1.00
H2       0.39280    1.17362    0.62815   1.00
H2       0.41516    1.12808    0.62318   1.00
H2       0.44430    1.17050    0.62253   1.00
H2       0.48758    1.22014    0.58411   1.00
H2       0.50961    1.25208    0.55015   1.00
H2       0.47004    1.26832    0.57706   1.00
H2       0.49947    1.18402    0.51748   1.00
H2       0.46362    1.18568    0.48125   1.00
H2       0.49791    1.22328    0.48451   1.00
H2       0.32644    1.18188    0.41652   1.00
H2       0.27720    1.18309    0.40258   1.00
H2       0.29023    1.19548    0.45049   1.00
H2       0.28957    1.11625    0.37609   1.00
H2       0.33627    1.11074    0.39620   1.00
H2       0.29934    1.07622    0.40614   1.00
H2       0.32140    1.01702    0.52610   1.00
H2       0.34907    1.05935    0.53432   1.00
H2       0.30165    1.05535    0.55430   1.00
H2       0.24662    1.05916    0.45856   1.00
H2       0.26245    1.01712    0.48321   1.00
H2       0.24165    1.05585    0.50996   1.00
H2       0.29494    1.20156    0.51811   1.00
H2       0.27237    1.18881    0.56274   1.00
H2       0.32003    1.17334    0.55284   1.00
H2       0.21569    1.15544    0.53599   1.00
H2       0.22987    1.17122    0.48907   1.00
H2       0.21882    1.12157    0.49780   1.00
C4       0.14416    0.91198    0.41540   1.00
C4       0.18588    0.91241    0.41481   1.00
C3       0.12136    0.88058    0.40089   1.00
C3       0.20884    0.88318    0.39650   1.00
C3       0.12377    0.94491    0.43075   1.00
C3       0.20614    0.94360    0.43357   1.00
C2       0.05988    0.91417    0.41587   1.00
C2       0.27012    0.91583    0.41413   1.00
C3       0.08038    0.88171    0.40090   1.00
C3       0.24981    0.88462    0.39647   1.00
C3       0.08242    0.94517    0.43117   1.00
C3       0.24738    0.94539    0.43176   1.00
H1       0.13385    0.85590    0.39001   1.00
H1       0.19648    0.86010    0.38243   1.00
C5       0.14480    0.97727    0.44574   1.00
C5       0.18520    0.97303    0.45372   1.00
H1       0.06545    0.85825    0.38976   1.00
H1       0.26490    0.86249    0.38306   1.00
H1       0.06820    0.96851    0.44326   1.00
H1       0.26132    0.96918    0.44316   1.00
O3       0.12539    1.01140    0.45442   1.00
O3       0.20401    0.99885    0.47835   1.00
Si1      0.12253    1.04600    0.42178   1.00
Si1      0.21221    0.98582    0.52341   1.00
C6       0.08962    1.07623    0.44741   1.00
C6       0.16902    1.06776    0.41831   1.00
C6       0.10247    1.03020    0.37704   1.00
C6       0.19807    0.93842    0.53809   1.00
C6       0.26302    0.99060    0.52783   1.00
C6       0.19023    1.02107    0.55368   1.00
C6       0.05306    1.05532    0.46528   1.00
H2       0.10709    1.08550    0.47241   1.00
C6       0.07353    1.11483    0.42869   1.00
H2       0.18142    1.06139    0.44693   1.00
C6       0.19866    1.05092    0.38794   1.00
C6       0.17164    1.11312    0.41363   1.00
H2       0.07669    1.01402    0.38658   1.00
C6       0.08728    1.06241    0.34835   1.00
C6       0.12651    1.00177    0.35024   1.00
C6       0.15429    0.92656    0.53308   1.00
C6       0.22275    0.90236    0.52467   1.00
H2       0.20288    0.93941    0.56956   1.00
H2       0.27449    0.96689    0.50994   1.00
C6       0.28122    1.02877    0.51050   1.00
C6       0.28107    0.98528    0.56941   1.00
H2       0.21125    1.04501    0.55419   1.00
C6       0.15164    1.03963    0.53832   1.00
C6       0.18256    1.01013    0.59739   1.00
H2       0.06154    1.03121    0.48433   1.00
H2       0.03410    1.04365    0.44244   1.00
H2       0.03583    1.07540    0.48310   1.00
H2       0.06892    1.13685    0.45132   1.00
H2       0.09322    1.12729    0.40717   1.00
H2       0.04536    1.11051    0.41442   1.00
H2       0.22828    1.06098    0.39429   1.00
H2       0.19968    1.01920    0.38857   1.00
H2       0.19148    1.06034    0.35837   1.00
H2       0.15638    1.12815    0.43720   1.00
H2       0.20192    1.12318    0.41484   1.00
H2       0.15950    1.12253    0.38570   1.00
H2       0.10986    1.08411    0.34242   1.00
H2       0.07792    1.05015    0.32039   1.00
H2       0.06168    1.07706    0.35996   1.00
H2       0.14598    1.01748    0.33053   1.00
H2       0.14432    0.98125    0.36638   1.00
H2       0.10672    0.98451    0.33209   1.00
H2       0.14812    0.91652    0.50356   1.00
H2       0.14691    0.90258    0.55280   1.00
H2       0.13452    0.95049    0.53977   1.00
H2       0.21375    0.87609    0.54043   1.00
H2       0.21926    0.89620    0.49373   1.00
H2       0.25378    0.90614    0.53066   1.00
H2       0.31298    1.02610    0.50860   1.00
H2       0.27065    1.03432    0.48093   1.00
H2       0.27465    1.05430    0.52835   1.00
H2       0.27084    0.95856    0.58338   1.00
H2       0.31288    0.98321    0.56755   1.00
H2       0.27415    1.00996    0.58835   1.00
H2       0.12844    1.01811    0.53506   1.00
H2       0.14119    1.06274    0.55763   1.00
H2       0.15666    1.05284    0.50997   1.00
H2       0.17456    1.03599    0.61431   1.00
H2       0.15878    0.98907    0.60013   1.00
H2       0.20843    0.99780    0.61118   1.00
C4       0.68584    0.91198    0.41460   1.00
C4       0.64412    0.91241    0.41519   1.00
C3       0.70864    0.88058    0.42911   1.00
C3       0.62116    0.88318    0.43350   1.00
C3       0.70623    0.94491    0.39925   1.00
C3       0.62386    0.94360    0.39643   1.00
C2       0.77012    0.91417    0.41413   1.00
C2       0.55988    0.91583    0.41587   1.00
C3       0.74962    0.88171    0.42910   1.00
C3       0.58019    0.88462    0.43353   1.00
C3       0.74758    0.94517    0.39883   1.00
C3       0.58262    0.94539    0.39824   1.00
H1       0.69615    0.85590    0.43999   1.00
H1       0.63352    0.86010    0.44757   1.00
C5       0.68520    0.97727    0.38426   1.00
C5       0.64480    0.97303    0.37628   1.00
H1       0.76455    0.85825    0.44024   1.00
H1       0.56510    0.86249    0.44694   1.00
H1       0.76180    0.96851    0.38674   1.00
H1       0.56868    0.96918    0.38684   1.00
O3       0.70461    1.01140    0.37558   1.00
O3       0.62599    0.99885    0.35165   1.00
Si1      0.70747    1.04600    0.40822   1.00
Si1      0.61779    0.98582    0.30659   1.00
C6       0.74038    1.07623    0.38259   1.00
C6       0.66098    1.06776    0.41169   1.00
C6       0.72753    1.03020    0.45296   1.00
C6       0.63193    0.93842    0.29191   1.00
C6       0.56698    0.99060    0.30217   1.00
C6       0.63977    1.02107    0.27632   1.00
C6       0.77694    1.05532    0.36472   1.00
H2       0.72291    1.08550    0.35759   1.00
C6       0.75647    1.11483    0.40131   1.00
H2       0.64858    1.06139    0.38307   1.00
C6       0.63134    1.05092    0.44206   1.00
C6       0.65836    1.11312    0.41637   1.00
H2       0.75331    1.01402    0.44342   1.00
C6       0.74272    1.06241    0.48165   1.00
C6       0.70349    1.00177    0.47976   1.00
C6       0.67571    0.92656    0.29692   1.00
C6       0.60725    0.90236    0.30533   1.00
H2       0.62712    0.93941    0.26044   1.00
H2       0.55551    0.96689    0.32006   1.00
C6       0.54878    1.02877    0.31950   1.00
C6       0.54893    0.98528    0.26059   1.00
H2       0.61875    1.04501    0.27581   1.00
C6       0.67836    1.03963    0.29168   1.00
C6       0.64744    1.01013    0.23261   1.00
H2       0.76846    1.03121    0.34567   1.00
H2       0.79590    1.04365    0.38756   1.00
H2       0.79417    1.07540    0.34690   1.00
H2       0.76108    1.13685    0.37868   1.00
H2       0.73678    1.12729    0.42283   1.00
H2       0.78464    1.11051    0.41558   1.00
H2       0.60172    1.06098    0.43571   1.00
H2       0.63032    1.01920    0.44143   1.00
H2       0.63852    1.06034    0.47163   1.00
H2       0.67362    1.12815    0.39280   1.00
H2       0.62808    1.12318    0.41516   1.00
H2       0.67050    1.12253    0.44430   1.00
H2       0.72014    1.08411    0.48758   1.00
H2       0.75208    1.05015    0.50961   1.00
H2       0.76832    1.07706    0.47004   1.00
H2       0.68402    1.01748    0.49947   1.00
H2       0.68568    0.98125    0.46362   1.00
H2       0.72328    0.98451    0.49791   1.00
H2       0.68188    0.91652    0.32644   1.00
H2       0.68309    0.90258    0.27720   1.00
H2       0.69548    0.95049    0.29023   1.00
H2       0.61625    0.87609    0.28957   1.00
H2       0.61074    0.89620    0.33627   1.00
H2       0.57622    0.90614    0.29934   1.00
H2       0.51702    1.02610    0.32140   1.00
H2       0.55935    1.03432    0.34907   1.00
H2       0.55535    1.05430    0.30165   1.00
H2       0.55916    0.95856    0.24662   1.00
H2       0.51712    0.98321    0.26245   1.00
H2       0.55585    1.00996    0.24165   1.00
H2       0.70156    1.01811    0.29494   1.00
H2       0.68881    1.06274    0.27237   1.00
H2       0.67334    1.05284    0.32003   1.00
H2       0.65544    1.03599    0.21569   1.00
H2       0.67122    0.98907    0.22987   1.00
H2       0.62157    0.99780    0.21882   1.00
C4       0.41540    0.64416    0.41198   1.00
C4       0.41481    0.68588    0.41241   1.00
C3       0.40089    0.62136    0.38058   1.00
C3       0.39650    0.70884    0.38318   1.00
C3       0.43075    0.62377    0.44491   1.00
C3       0.43357    0.70614    0.44360   1.00
C2       0.41587    0.55988    0.41417   1.00
C2       0.41413    0.77012    0.41583   1.00
C3       0.40090    0.58038    0.38171   1.00
C3       0.39647    0.74981    0.38462   1.00
C3       0.43117    0.58242    0.44517   1.00
C3       0.43176    0.74738    0.44539   1.00
H1       0.39001    0.63385    0.35590   1.00
H1       0.38243    0.69648    0.36010   1.00
C5       0.44574    0.64480    0.47727   1.00
C5       0.45372    0.68520    0.47303   1.00
H1       0.38976    0.56545    0.35825   1.00
H1       0.38306    0.76490    0.36249   1.00
H1       0.44326    0.56820    0.46851   1.00
H1       0.44316    0.76132    0.46918   1.00
O3       0.45442    0.62539    0.51140   1.00
O3       0.47835    0.70401    0.49885   1.00
Si1      0.42178    0.62253    0.54600   1.00
Si1      0.52341    0.71221    0.48582   1.00
C6       0.44741    0.58962    0.57623   1.00
C6       0.41831    0.66902    0.56776   1.00
C6       0.37704    0.60247    0.53020   1.00
C6       0.53809    0.69807    0.43842   1.00
C6       0.52783    0.76302    0.49060   1.00
C6       0.55368    0.69023    0.52107   1.00
C6       0.46528    0.55306    0.55532   1.00
H2       0.47241    0.60709    0.58550   1.00
C6       0.42869    0.57353    0.61483   1.00
H2       0.44693    0.68142    0.56139   1.00
C6       0.38794    0.69866    0.55092   1.00
C6       0.41363    0.67164    0.61312   1.00
H2       0.38658    0.57669    0.51402   1.00
C6       0.34835    0.58728    0.56241   1.00
C6       0.35024    0.62651    0.50177   1.00
C6       0.53308    0.65429    0.42656   1.00
C6       0.52467    0.72275    0.40236   1.00
H2       0.56956    0.70288    0.43941   1.00
H2       0.50994    0.77449    0.46689   1.00
C6       0.51050    0.78122    0.52877   1.00
C6       0.56941    0.78107    0.48528   1.00
H2       0.55419    0.71125    0.54501   1.00
C6       0.53832    0.65164    0.53963   1.00
C6       0.59739    0.68256    0.51013   1.00
H2       0.48433    0.56154    0.53121   1.00
H2       0.44244    0.53410    0.54365   1.00
H2       0.48310    0.53583    0.57540   1.00
H2       0.45132    0.56892    0.63685   1.00
H2       0.40717    0.59322    0.62729   1.00
H2       0.41442    0.54536    0.61051   1.00
H2       0.39429    0.72828    0.56098   1.00
H2       0.38857    0.69968    0.51920   1.00
H2       0.35837    0.69148    0.56034   1.00
H2       0.43720    0.65638    0.62815   1.00
H2       0.41484    0.70192    0.62318   1.00
H2       0.38570    0.65950    0.62253   1.00
H2       0.34242    0.60986    0.58411   1.00
H2       0.32039    0.57792    0.55015   1.00
H2       0.35996    0.56168    0.57706   1.00
H2       0.33053    0.64598    0.51748   1.00
H2       0.36638    0.64432    0.48125   1.00
H2       0.33209    0.60672    0.48451   1.00
H2       0.50356    0.64812    0.41652   1.00
H2       0.55280    0.64691    0.40258   1.00
H2       0.53977    0.63452    0.45049   1.00
H2       0.54043    0.71375    0.37609   1.00
H2       0.49373    0.71926    0.39620   1.00
H2       0.53066    0.75378    0.40614   1.00
H2       0.50860    0.81298    0.52610   1.00
H2       0.48093    0.77065    0.53432   1.00
H2       0.52835    0.77465    0.55430   1.00
H2       0.58338    0.77084    0.45856   1.00
H2       0.56755    0.81288    0.48321   1.00
H2       0.58835    0.77415    0.50996   1.00
H2       0.53506    0.62844    0.51811   1.00
H2       0.55763    0.64119    0.56274   1.00
H2       0.50997    0.65666    0.55284   1.00
H2       0.61431    0.67456    0.53599   1.00
H2       0.60013    0.65878    0.48907   1.00
H2       0.61118    0.70843    0.49780   1.00
C4       0.41198    0.91540    0.14416   1.00
C4       0.41241    0.91481    0.18588   1.00
C3       0.38058    0.90089    0.12136   1.00
C3       0.38318    0.89650    0.20884   1.00
C3       0.44491    0.93075    0.12377   1.00
C3       0.44360    0.93357    0.20614   1.00
C2       0.41417    0.91587    0.05988   1.00
C2       0.41583    0.91413    0.27012   1.00
C3       0.38171    0.90090    0.08038   1.00
C3       0.38462    0.89647    0.24981   1.00
C3       0.44517    0.93117    0.08242   1.00
C3       0.44539    0.93176    0.24738   1.00
H1       0.35590    0.89001    0.13385   1.00
H1       0.36010    0.88243    0.19648   1.00
C5       0.47727    0.94574    0.14480   1.00
C5       0.47303    0.95372    0.18520   1.00
H1       0.35825    0.88976    0.06545   1.00
H1       0.36249    0.88306    0.26490   1.00
H1       0.46851    0.94326    0.06820   1.00
H1       0.46918    0.94316    0.26132   1.00
O3       0.51140    0.95442    0.12539   1.00
O3       0.49885    0.97835    0.20401   1.00
Si1      0.54600    0.92178    0.12253   1.00
Si1      0.48582    1.02341    0.21221   1.00
C6       0.57623    0.94741    0.08962   1.00
C6       0.56776    0.91831    0.16902   1.00
C6       0.53020    0.87704    0.10247   1.00
C6       0.43842    1.03809    0.19807   1.00
C6       0.49060    1.02783    0.26302   1.00
C6       0.52107    1.05368    0.19023   1.00
C6       0.55532    0.96528    0.05306   1.00
H2       0.58550    0.97241    0.10709   1.00
C6       0.61483    0.92869    0.07353   1.00
H2       0.56139    0.94693    0.18142   1.00
C6       0.55092    0.88794    0.19866   1.00
C6       0.61312    0.91363    0.17164   1.00
H2       0.51402    0.88658    0.07669   1.00
C6       0.56241    0.84835    0.08728   1.00
C6       0.50177    0.85024    0.12651   1.00
C6       0.42656    1.03308    0.15429   1.00
C6       0.40236    1.02467    0.22275   1.00
H2       0.43941    1.06956    0.20288   1.00
H2       0.46689    1.00994    0.27449   1.00
C6       0.52877    1.01050    0.28122   1.00
C6       0.48528    1.06941    0.28107   1.00
H2       0.54501    1.05419    0.21125   1.00
C6       0.53963    1.03832    0.15164   1.00
C6       0.51013    1.09739    0.18256   1.00
H2       0.53121    0.98433    0.06154   1.00
H2       0.54365    0.94244    0.03410   1.00
H2       0.57540    0.98310    0.03583   1.00
H2       0.63685    0.95132    0.06892   1.00
H2       0.62729    0.90717    0.09322   1.00
H2       0.61051    0.91442    0.04536   1.00
H2       0.56098    0.89429    0.22828   1.00
H2       0.51920    0.88857    0.19968   1.00
H2       0.56034    0.85837    0.19148   1.00
H2       0.62815    0.93720    0.15638   1.00
H2       0.62318    0.91484    0.20192   1.00
H2       0.62253    0.88570    0.15950   1.00
H2       0.58411    0.84242    0.10986   1.00
H2       0.55015    0.82039    0.07792   1.00
H2       0.57706    0.85996    0.06168   1.00
H2       0.51748    0.83053    0.14598   1.00
H2       0.48125    0.86638    0.14432   1.00
H2       0.48451    0.83209    0.10672   1.00
H2       0.41652    1.00356    0.14812   1.00
H2       0.40258    1.05280    0.14691   1.00
H2       0.45049    1.03977    0.13452   1.00
H2       0.37609    1.04043    0.21375   1.00
H2       0.39620    0.99373    0.21926   1.00
H2       0.40614    1.03066    0.25378   1.00
H2       0.52610    1.00860    0.31298   1.00
H2       0.53432    0.98093    0.27065   1.00
H2       0.55430    1.02835    0.27465   1.00
H2       0.45856    1.08338    0.27084   1.00
H2       0.48321    1.06755    0.31288   1.00
H2       0.50996    1.08835    0.27415   1.00
H2       0.51811    1.03506    0.12844   1.00
H2       0.56274    1.05763    0.14119   1.00
H2       0.55284    1.00997    0.15666   1.00
H2       0.53599    1.11431    0.17456   1.00
H2       0.48907    1.10013    0.15878   1.00
H2       0.49780    1.11118    0.20843   1.00
C4       0.91198    0.41460    0.68584   1.00
C4       0.91241    0.41519    0.64412   1.00
C3       0.88058    0.42911    0.70864   1.00
C3       0.88318    0.43350    0.62116   1.00
C3       0.94491    0.39925    0.70623   1.00
C3       0.94360    0.39643    0.62386   1.00
C2       0.91417    0.41413    0.77012   1.00
C2       0.91583    0.41587    0.55988   1.00
C3       0.88171    0.42910    0.74962   1.00
C3       0.88462    0.43353    0.58019   1.00
C3       0.94517    0.39883    0.74758   1.00
C3       0.94539    0.39824    0.58262   1.00
H1       0.85590    0.43999    0.69615   1.00
H1       0.86010    0.44757    0.63352   1.00
C5       0.97727    0.38426    0.68520   1.00
C5       0.97303    0.37628    0.64480   1.00
H1       0.85825    0.44024    0.76455   1.00
H1       0.86249    0.44694    0.56510   1.00
H1       0.96851    0.38674    0.76180   1.00
H1       0.96918    0.38684    0.56868   1.00
O3       1.01140    0.37558    0.70461   1.00
O3       0.99885    0.35165    0.62599   1.00
Si1      1.04600    0.40822    0.70747   1.00
Si1      0.98582    0.30659    0.61779   1.00
C6       1.07623    0.38259    0.74038   1.00
C6       1.06776    0.41169    0.66098   1.00
C6       1.03020    0.45296    0.72753   1.00
C6       0.93842    0.29191    0.63193   1.00
C6       0.99060    0.30217    0.56698   1.00
C6       1.02107    0.27632    0.63977   1.00
C6       1.05532    0.36472    0.77694   1.00
H2       1.08550    0.35759    0.72291   1.00
C6       1.11483    0.40131    0.75647   1.00
H2       1.06139    0.38307    0.64858   1.00
C6       1.05092    0.44206    0.63134   1.00
C6       1.11312    0.41637    0.65836   1.00
H2       1.01402    0.44342    0.75331   1.00
C6       1.06241    0.48165    0.74272   1.00
C6       1.00177    0.47976    0.70349   1.00
C6       0.92656    0.29692    0.67571   1.00
C6       0.90236    0.30533    0.60725   1.00
H2       0.93941    0.26044    0.62712   1.00
H2       0.96689    0.32006    0.55551   1.00
C6       1.02877    0.31950    0.54878   1.00
C6       0.98528    0.26059    0.54893   1.00
H2       1.04501    0.27581    0.61875   1.00
C6       1.03963    0.29168    0.67836   1.00
C6       1.01013    0.23261    0.64744   1.00
H2       1.03121    0.34567    0.76846   1.00
H2       1.04365    0.38756    0.79590   1.00
H2       1.07540    0.34690    0.79417   1.00
H2       1.13685    0.37868    0.76108   1.00
H2       1.12729    0.42283    0.73678   1.00
H2       1.11051    0.41558    0.78464   1.00
H2       1.06098    0.43571    0.60172   1.00
H2       1.01920    0.44143    0.63032   1.00
H2       1.06034    0.47163    0.63852   1.00
H2       1.12815    0.39280    0.67362   1.00
H2       1.12318    0.41516    0.62808   1.00
H2       1.12253    0.44430    0.67050   1.00
H2       1.08411    0.48758    0.72014   1.00
H2       1.05015    0.50961    0.75208   1.00
H2       1.07706    0.47004    0.76832   1.00
H2       1.01748    0.49947    0.68402   1.00
H2       0.98125    0.46362    0.68568   1.00
H2       0.98451    0.49791    0.72328   1.00
H2       0.91652    0.32644    0.68188   1.00
H2       0.90258    0.27720    0.68309   1.00
H2       0.95049    0.29023    0.69548   1.00
H2       0.87609    0.28957    0.61625   1.00
H2       0.89620    0.33627    0.61074   1.00
H2       0.90614    0.29934    0.57622   1.00
H2       1.02610    0.32140    0.51702   1.00
H2       1.03432    0.34907    0.55935   1.00
H2       1.05430    0.30165    0.55535   1.00
H2       0.95856    0.24662    0.55916   1.00
H2       0.98321    0.26245    0.51712   1.00
H2       1.00996    0.24165    0.55585   1.00
H2       1.01811    0.29494    0.70156   1.00
H2       1.06274    0.27237    0.68881   1.00
H2       1.05284    0.32003    0.67334   1.00
H2       1.03599    0.21569    0.65544   1.00
H2       0.98907    0.22987    0.67122   1.00
H2       0.99780    0.21882    0.62157   1.00
C4       0.91460    0.68584    0.41198   1.00
C4       0.91519    0.64412    0.41241   1.00
C3       0.92911    0.70864    0.38058   1.00
C3       0.93350    0.62116    0.38318   1.00
C3       0.89925    0.70623    0.44491   1.00
C3       0.89643    0.62386    0.44360   1.00
C2       0.91413    0.77012    0.41417   1.00
C2       0.91587    0.55988    0.41583   1.00
C3       0.92910    0.74962    0.38171   1.00
C3       0.93353    0.58019    0.38462   1.00
C3       0.89883    0.74758    0.44517   1.00
C3       0.89824    0.58262    0.44539   1.00
H1       0.93999    0.69615    0.35590   1.00
H1       0.94757    0.63352    0.36010   1.00
C5       0.88426    0.68520    0.47727   1.00
C5       0.87628    0.64480    0.47303   1.00
H1       0.94024    0.76455    0.35825   1.00
H1       0.94694    0.56510    0.36249   1.00
H1       0.88674    0.76180    0.46851   1.00
H1       0.88684    0.56868    0.46918   1.00
O3       0.87558    0.70461    0.51140   1.00
O3       0.85165    0.62599    0.49885   1.00
Si1      0.90822    0.70747    0.54600   1.00
Si1      0.80659    0.61779    0.48582   1.00
C6       0.88259    0.74038    0.57623   1.00
C6       0.91169    0.66098    0.56776   1.00
C6       0.95296    0.72753    0.53020   1.00
C6       0.79191    0.63193    0.43842   1.00
C6       0.80217    0.56698    0.49060   1.00
C6       0.77632    0.63977    0.52107   1.00
C6       0.86472    0.77694    0.55532   1.00
H2       0.85759    0.72291    0.58550   1.00
C6       0.90131    0.75647    0.61483   1.00
H2       0.88307    0.64858    0.56139   1.00
C6       0.94206    0.63134    0.55092   1.00
C6       0.91637    0.65836    0.61312   1.00
H2       0.94342    0.75331    0.51402   1.00
C6       0.98165    0.74272    0.56241   1.00
C6       0.97976    0.70349    0.50177   1.00
C6       0.79692    0.67571    0.42656   1.00
C6       0.80533    0.60725    0.40236   1.00
H2       0.76044    0.62712    0.43941   1.00
H2       0.82006    0.55551    0.46689   1.00
C6       0.81950    0.54878    0.52877   1.00
C6       0.76059    0.54893    0.48528   1.00
H2       0.77581    0.61875    0.54501   1.00
C6       0.79168    0.67836    0.53963   1.00
C6       0.73261    0.64744    0.51013   1.00
H2       0.84567    0.76846    0.53121   1.00
H2       0.88756    0.79590    0.54365   1.00
H2       0.84690    0.79417    0.57540   1.00
H2       0.87868    0.76108    0.63685   1.00
H2       0.92283    0.73678    0.62729   1.00
H2       0.91558    0.78464    0.61051   1.00
H2       0.93571    0.60172    0.56098   1.00
H2       0.94143    0.63032    0.51920   1.00
H2       0.97163    0.63852    0.56034   1.00
H2       0.89280    0.67362    0.62815   1.00
H2       0.91516    0.62808    0.62318   1.00
H2       0.94430    0.67050    0.62253   1.00
H2       0.98758    0.72014    0.58411   1.00
H2       1.00961    0.75208    0.55015   1.00
H2       0.97004    0.76832    0.57706   1.00
H2       0.99947    0.68402    0.51748   1.00
H2       0.96362    0.68568    0.48125   1.00
H2       0.99791    0.72328    0.48451   1.00
H2       0.82644    0.68188    0.41652   1.00
H2       0.77720    0.68309    0.40258   1.00
H2       0.79023    0.69548    0.45049   1.00
H2       0.78957    0.61625    0.37609   1.00
H2       0.83627    0.61074    0.39620   1.00
H2       0.79934    0.57622    0.40614   1.00
H2       0.82140    0.51702    0.52610   1.00
H2       0.84907    0.55935    0.53432   1.00
H2       0.80165    0.55535    0.55430   1.00
H2       0.74662    0.55916    0.45856   1.00
H2       0.76245    0.51712    0.48321   1.00
H2       0.74165    0.55585    0.50996   1.00
H2       0.79494    0.70156    0.51811   1.00
H2       0.77237    0.68881    0.56274   1.00
H2       0.82003    0.67334    0.55284   1.00
H2       0.71569    0.65544    0.53599   1.00
H2       0.72987    0.67122    0.48907   1.00
H2       0.71882    0.62157    0.49780   1.00
C4       0.64416    0.41198    0.41540   1.00
C4       0.68588    0.41241    0.41481   1.00
C3       0.62136    0.38058    0.40089   1.00
C3       0.70884    0.38318    0.39650   1.00
C3       0.62377    0.44491    0.43075   1.00
C3       0.70614    0.44360    0.43357   1.00
C2       0.55988    0.41417    0.41587   1.00
C2       0.77012    0.41583    0.41413   1.00
C3       0.58038    0.38171    0.40090   1.00
C3       0.74981    0.38462    0.39647   1.00
C3       0.58242    0.44517    0.43117   1.00
C3       0.74738    0.44539    0.43176   1.00
H1       0.63385    0.35590    0.39001   1.00
H1       0.69648    0.36010    0.38243   1.00
C5       0.64480    0.47727    0.44574   1.00
C5       0.68520    0.47303    0.45372   1.00
H1       0.56545    0.35825    0.38976   1.00
H1       0.76490    0.36249    0.38306   1.00
H1       0.56820    0.46851    0.44326   1.00
H1       0.76132    0.46918    0.44316   1.00
O3       0.62539    0.51140    0.45442   1.00
O3       0.70401    0.49885    0.47835   1.00
Si1      0.62253    0.54600    0.42178   1.00
Si1      0.71221    0.48582    0.52341   1.00
C6       0.58962    0.57623    0.44741   1.00
C6       0.66902    0.56776    0.41831   1.00
C6       0.60247    0.53020    0.37704   1.00
C6       0.69807    0.43842    0.53809   1.00
C6       0.76302    0.49060    0.52783   1.00
C6       0.69023    0.52107    0.55368   1.00
C6       0.55306    0.55532    0.46528   1.00
H2       0.60709    0.58550    0.47241   1.00
C6       0.57353    0.61483    0.42869   1.00
H2       0.68142    0.56139    0.44693   1.00
C6       0.69866    0.55092    0.38794   1.00
C6       0.67164    0.61312    0.41363   1.00
H2       0.57669    0.51402    0.38658   1.00
C6       0.58728    0.56241    0.34835   1.00
C6       0.62651    0.50177    0.35024   1.00
C6       0.65429    0.42656    0.53308   1.00
C6       0.72275    0.40236    0.52467   1.00
H2       0.70288    0.43941    0.56956   1.00
H2       0.77449    0.46689    0.50994   1.00
C6       0.78122    0.52877    0.51050   1.00
C6       0.78107    0.48528    0.56941   1.00
H2       0.71125    0.54501    0.55419   1.00
C6       0.65164    0.53963    0.53832   1.00
C6       0.68256    0.51013    0.59739   1.00
H2       0.56154    0.53121    0.48433   1.00
H2       0.53410    0.54365    0.44244   1.00
H2       0.53583    0.57540    0.48310   1.00
H2       0.56892    0.63685    0.45132   1.00
H2       0.59322    0.62729    0.40717   1.00
H2       0.54536    0.61051    0.41442   1.00
H2       0.72828    0.56098    0.39429   1.00
H2       0.69968    0.51920    0.38857   1.00
H2       0.69148    0.56034    0.35837   1.00
H2       0.65638    0.62815    0.43720   1.00
H2       0.70192    0.62318    0.41484   1.00
H2       0.65950    0.62253    0.38570   1.00
H2       0.60986    0.58411    0.34242   1.00
H2       0.57792    0.55015    0.32039   1.00
H2       0.56168    0.57706    0.35996   1.00
H2       0.64598    0.51748    0.33053   1.00
H2       0.64432    0.48125    0.36638   1.00
H2       0.60672    0.48451    0.33209   1.00
H2       0.64812    0.41652    0.50356   1.00
H2       0.64691    0.40258    0.55280   1.00
H2       0.63452    0.45049    0.53977   1.00
H2       0.71375    0.37609    0.54043   1.00
H2       0.71926    0.39620    0.49373   1.00
H2       0.75378    0.40614    0.53066   1.00
H2       0.81298    0.52610    0.50860   1.00
H2       0.77065    0.53432    0.48093   1.00
H2       0.77465    0.55430    0.52835   1.00
H2       0.77084    0.45856    0.58338   1.00
H2       0.81288    0.48321    0.56755   1.00
H2       0.77415    0.50996    0.58835   1.00
H2       0.62844    0.51811    0.53506   1.00
H2       0.64119    0.56274    0.55763   1.00
H2       0.65666    0.55284    0.50997   1.00
H2       0.67456    0.53599    0.61431   1.00
H2       0.65878    0.48907    0.60013   1.00
H2       0.70843    0.49780    0.61118   1.00
C4       1.18584    0.41198    0.41460   1.00
C4       1.14412    0.41241    0.41519   1.00
C3       1.20864    0.38058    0.42911   1.00
C3       1.12116    0.38318    0.43350   1.00
C3       1.20623    0.44491    0.39925   1.00
C3       1.12386    0.44360    0.39643   1.00
C2       1.27012    0.41417    0.41413   1.00
C2       1.05988    0.41583    0.41587   1.00
C3       1.24962    0.38171    0.42910   1.00
C3       1.08019    0.38462    0.43353   1.00
C3       1.24758    0.44517    0.39883   1.00
C3       1.08262    0.44539    0.39824   1.00
H1       1.19615    0.35590    0.43999   1.00
H1       1.13352    0.36010    0.44757   1.00
C5       1.18520    0.47727    0.38426   1.00
C5       1.14480    0.47303    0.37628   1.00
H1       1.26455    0.35825    0.44024   1.00
H1       1.06510    0.36249    0.44694   1.00
H1       1.26180    0.46851    0.38674   1.00
H1       1.06868    0.46918    0.38684   1.00
O3       1.20461    0.51140    0.37558   1.00
O3       1.12599    0.49885    0.35165   1.00
Si1      1.20747    0.54600    0.40822   1.00
Si1      1.11779    0.48582    0.30659   1.00
C6       1.24038    0.57623    0.38259   1.00
C6       1.16098    0.56776    0.41169   1.00
C6       1.22753    0.53020    0.45296   1.00
C6       1.13193    0.43842    0.29191   1.00
C6       1.06698    0.49060    0.30217   1.00
C6       1.13977    0.52107    0.27632   1.00
C6       1.27694    0.55532    0.36472   1.00
H2       1.22291    0.58550    0.35759   1.00
C6       1.25647    0.61483    0.40131   1.00
H2       1.14858    0.56139    0.38307   1.00
C6       1.13134    0.55092    0.44206   1.00
C6       1.15836    0.61312    0.41637   1.00
H2       1.25331    0.51402    0.44342   1.00
C6       1.24272    0.56241    0.48165   1.00
C6       1.20349    0.50177    0.47976   1.00
C6       1.17571    0.42656    0.29692   1.00
C6       1.10725    0.40236    0.30533   1.00
H2       1.12712    0.43941    0.26044   1.00
H2       1.05551    0.46689    0.32006   1.00
C6       1.04878    0.52877    0.31950   1.00
C6       1.04893    0.48528    0.26059   1.00
H2       1.11875    0.54501    0.27581   1.00
C6       1.17836    0.53963    0.29168   1.00
C6       1.14744    0.51013    0.23261   1.00
H2       1.26846    0.53121    0.34567   1.00
H2       1.29590    0.54365    0.38756   1.00
H2       1.29417    0.57540    0.34690   1.00
H2       1.26108    0.63685    0.37868   1.00
H2       1.23678    0.62729    0.42283   1.00
H2       1.28464    0.61051    0.41558   1.00
H2       1.10172    0.56098    0.43571   1.00
H2       1.13032    0.51920    0.44143   1.00
H2       1.13852    0.56034    0.47163   1.00
H2       1.17362    0.62815    0.39280   1.00
H2       1.12808    0.62318    0.41516   1.00
H2       1.17050    0.62253    0.44430   1.00
H2       1.22014    0.58411    0.48758   1.00
H2       1.25208    0.55015    0.50961   1.00
H2       1.26832    0.57706    0.47004   1.00
H2       1.18402    0.51748    0.49947   1.00
H2       1.18568    0.48125    0.46362   1.00
H2       1.22328    0.48451    0.49791   1.00
H2       1.18188    0.41652    0.32644   1.00
H2       1.18309    0.40258    0.27720   1.00
H2       1.19548    0.45049    0.29023   1.00
H2       1.11625    0.37609    0.28957   1.00
H2       1.11074    0.39620    0.33627   1.00
H2       1.07622    0.40614    0.29934   1.00
H2       1.01702    0.52610    0.32140   1.00
H2       1.05935    0.53432    0.34907   1.00
H2       1.05535    0.55430    0.30165   1.00
H2       1.05916    0.45856    0.24662   1.00
H2       1.01712    0.48321    0.26245   1.00
H2       1.05585    0.50996    0.24165   1.00
H2       1.20156    0.51811    0.29494   1.00
H2       1.18881    0.56274    0.27237   1.00
H2       1.17334    0.55284    0.32003   1.00
H2       1.15544    0.53599    0.21569   1.00
H2       1.17122    0.48907    0.22987   1.00
H2       1.12157    0.49780    0.21882   1.00
C4       0.91540    0.14416    0.41198   1.00
C4       0.91481    0.18588    0.41241   1.00
C3       0.90089    0.12136    0.38058   1.00
C3       0.89650    0.20884    0.38318   1.00
C3       0.93075    0.12377    0.44491   1.00
C3       0.93357    0.20614    0.44360   1.00
C2       0.91587    0.05988    0.41417   1.00
C2       0.91413    0.27012    0.41583   1.00
C3       0.90090    0.08038    0.38171   1.00
C3       0.89647    0.24981    0.38462   1.00
C3       0.93117    0.08242    0.44517   1.00
C3       0.93176    0.24738    0.44539   1.00
H1       0.89001    0.13385    0.35590   1.00
H1       0.88243    0.19648    0.36010   1.00
C5       0.94574    0.14480    0.47727   1.00
C5       0.95372    0.18520    0.47303   1.00
H1       0.88976    0.06545    0.35825   1.00
H1       0.88306    0.26490    0.36249   1.00
H1       0.94326    0.06820    0.46851   1.00
H1       0.94316    0.26132    0.46918   1.00
O3       0.95442    0.12539    0.51140   1.00
O3       0.97835    0.20401    0.49885   1.00
Si1      0.92178    0.12253    0.54600   1.00
Si1      1.02341    0.21221    0.48582   1.00
C6       0.94741    0.08962    0.57623   1.00
C6       0.91831    0.16902    0.56776   1.00
C6       0.87704    0.10247    0.53020   1.00
C6       1.03809    0.19807    0.43842   1.00
C6       1.02783    0.26302    0.49060   1.00
C6       1.05368    0.19023    0.52107   1.00
C6       0.96528    0.05306    0.55532   1.00
H2       0.97241    0.10709    0.58550   1.00
C6       0.92869    0.07353    0.61483   1.00
H2       0.94693    0.18142    0.56139   1.00
C6       0.88794    0.19866    0.55092   1.00
C6       0.91363    0.17164    0.61312   1.00
H2       0.88658    0.07669    0.51402   1.00
C6       0.84835    0.08728    0.56241   1.00
C6       0.85024    0.12651    0.50177   1.00
C6       1.03308    0.15429    0.42656   1.00
C6       1.02467    0.22275    0.40236   1.00
H2       1.06956    0.20288    0.43941   1.00
H2       1.00994    0.27449    0.46689   1.00
C6       1.01050    0.28122    0.52877   1.00
C6       1.06941    0.28107    0.48528   1.00
H2       1.05419    0.21125    0.54501   1.00
C6       1.03832    0.15164    0.53963   1.00
C6       1.09739    0.18256    0.51013   1.00
H2       0.98433    0.06154    0.53121   1.00
H2       0.94244    0.03410    0.54365   1.00
H2       0.98310    0.03583    0.57540   1.00
H2       0.95132    0.06892    0.63685   1.00
H2       0.90717    0.09322    0.62729   1.00
H2       0.91442    0.04536    0.61051   1.00
H2       0.89429    0.22828    0.56098   1.00
H2       0.88857    0.19968    0.51920   1.00
H2       0.85837    0.19148    0.56034   1.00
H2       0.93720    0.15638    0.62815   1.00
H2       0.91484    0.20192    0.62318   1.00
H2       0.88570    0.15950    0.62253   1.00
H2       0.84242    0.10986    0.58411   1.00
H2       0.82039    0.07792    0.55015   1.00
H2       0.85996    0.06168    0.57706   1.00
H2       0.83053    0.14598    0.51748   1.00
H2       0.86638    0.14432    0.48125   1.00
H2       0.83209    0.10672    0.48451   1.00
H2       1.00356    0.14812    0.41652   1.00
H2       1.05280    0.14691    0.40258   1.00
H2       1.03977    0.13452    0.45049   1.00
H2       1.04043    0.21375    0.37609   1.00
H2       0.99373    0.21926    0.39620   1.00
H2       1.03066    0.25378    0.40614   1.00
H2       1.00860    0.31298    0.52610   1.00
H2       0.98093    0.27065    0.53432   1.00
H2       1.02835    0.27465    0.55430   1.00
H2       1.08338    0.27084    0.45856   1.00
H2       1.06755    0.31288    0.48321   1.00
H2       1.08835    0.27415    0.50996   1.00
H2       1.03506    0.12844    0.51811   1.00
H2       1.05763    0.14119    0.56274   1.00
H2       1.00997    0.15666    0.55284   1.00
H2       1.11431    0.17456    0.53599   1.00
H2       1.10013    0.15878    0.48907   1.00
H2       1.11118    0.20843    0.49780   1.00
C4       0.91198    0.41540    0.14416   1.00
C4       0.91241    0.41481    0.18588   1.00
C3       0.88058    0.40089    0.12136   1.00
C3       0.88318    0.39650    0.20884   1.00
C3       0.94491    0.43075    0.12377   1.00
C3       0.94360    0.43357    0.20614   1.00
C2       0.91417    0.41587    0.05988   1.00
C2       0.91583    0.41413    0.27012   1.00
C3       0.88171    0.40090    0.08038   1.00
C3       0.88462    0.39647    0.24981   1.00
C3       0.94517    0.43117    0.08242   1.00
C3       0.94539    0.43176    0.24738   1.00
H1       0.85590    0.39001    0.13385   1.00
H1       0.86010    0.38243    0.19648   1.00
C5       0.97727    0.44574    0.14480   1.00
C5       0.97303    0.45372    0.18520   1.00
H1       0.85825    0.38976    0.06545   1.00
H1       0.86249    0.38306    0.26490   1.00
H1       0.96851    0.44326    0.06820   1.00
H1       0.96918    0.44316    0.26132   1.00
O3       1.01140    0.45442    0.12539   1.00
O3       0.99885    0.47835    0.20401   1.00
Si1      1.04600    0.42178    0.12253   1.00
Si1      0.98582    0.52341    0.21221   1.00
C6       1.07623    0.44741    0.08962   1.00
C6       1.06776    0.41831    0.16902   1.00
C6       1.03020    0.37704    0.10247   1.00
C6       0.93842    0.53809    0.19807   1.00
C6       0.99060    0.52783    0.26302   1.00
C6       1.02107    0.55368    0.19023   1.00
C6       1.05532    0.46528    0.05306   1.00
H2       1.08550    0.47241    0.10709   1.00
C6       1.11483    0.42869    0.07353   1.00
H2       1.06139    0.44693    0.18142   1.00
C6       1.05092    0.38794    0.19866   1.00
C6       1.11312    0.41363    0.17164   1.00
H2       1.01402    0.38658    0.07669   1.00
C6       1.06241    0.34835    0.08728   1.00
C6       1.00177    0.35024    0.12651   1.00
C6       0.92656    0.53308    0.15429   1.00
C6       0.90236    0.52467    0.22275   1.00
H2       0.93941    0.56956    0.20288   1.00
H2       0.96689    0.50994    0.27449   1.00
C6       1.02877    0.51050    0.28122   1.00
C6       0.98528    0.56941    0.28107   1.00
H2       1.04501    0.55419    0.21125   1.00
C6       1.03963    0.53832    0.15164   1.00
C6       1.01013    0.59739    0.18256   1.00
H2       1.03121    0.48433    0.06154   1.00
H2       1.04365    0.44244    0.03410   1.00
H2       1.07540    0.48310    0.03583   1.00
H2       1.13685    0.45132    0.06892   1.00
H2       1.12729    0.40717    0.09322   1.00
H2       1.11051    0.41442    0.04536   1.00
H2       1.06098    0.39429    0.22828   1.00
H2       1.01920    0.38857    0.19968   1.00
H2       1.06034    0.35837    0.19148   1.00
H2       1.12815    0.43720    0.15638   1.00
H2       1.12318    0.41484    0.20192   1.00
H2       1.12253    0.38570    0.15950   1.00
H2       1.08411    0.34242    0.10986   1.00
H2       1.05015    0.32039    0.07792   1.00
H2       1.07706    0.35996    0.06168   1.00
H2       1.01748    0.33053    0.14598   1.00
H2       0.98125    0.36638    0.14432   1.00
H2       0.98451    0.33209    0.10672   1.00
H2       0.91652    0.50356    0.14812   1.00
H2       0.90258    0.55280    0.14691   1.00
H2       0.95049    0.53977    0.13452   1.00
H2       0.87609    0.54043    0.21375   1.00
H2       0.89620    0.49373    0.21926   1.00
H2       0.90614    0.53066    0.25378   1.00
H2       1.02610    0.50860    0.31298   1.00
H2       1.03432    0.48093    0.27065   1.00
H2       1.05430    0.52835    0.27465   1.00
H2       0.95856    0.58338    0.27084   1.00
H2       0.98321    0.56755    0.31288   1.00
H2       1.00996    0.58835    0.27415   1.00
H2       1.01811    0.53506    0.12844   1.00
H2       1.06274    0.55763    0.14119   1.00
H2       1.05284    0.50997    0.15666   1.00
H2       1.03599    0.61431    0.17456   1.00
H2       0.98907    0.60013    0.15878   1.00
H2       0.99780    0.61118    0.20843   1.00
