data_IRMOF10_SG202_interpen_Ligand3cp_label_o.

_audit_creation_method             'generated by an auxiliary program of Tobunporous'

_symmetry_space_group_name_H-M     'P 1'
_symmetry_Int_Tables_number        1
_symmetry_cell_setting             triclinic

_cell_length_a                    34.2800
_cell_length_b                    34.2800
_cell_length_c                    34.2800
_cell_angle_alpha                 90.0000
_cell_angle_beta                  90.0000
_cell_angle_gamma                 90.0000

loop_
_atom_site_label
_atom_site_fract_x
_atom_site_fract_y
_atom_site_fract_z
_atom_site_occupancy
O1       0.75000    0.75000    0.75000   1.00
Zn1      0.71720    0.78280    0.78280   1.00
Zn1      0.78280    0.71720    0.78280   1.00
Zn1      0.78280    0.78280    0.71720   1.00
Zn1      0.71720    0.71720    0.71720   1.00
O2       0.72650    0.77350    0.83820   1.00
O2       0.72650    0.83820    0.77350   1.00
O2       0.66180    0.77350    0.77350   1.00
O2       0.77350    0.72650    0.83820   1.00
O2       0.83820    0.72650    0.77350   1.00
O2       0.77350    0.66180    0.77350   1.00
O2       0.77350    0.83820    0.72650   1.00
O2       0.83820    0.77350    0.72650   1.00
O2       0.77350    0.77350    0.66180   1.00
O2       0.66180    0.72650    0.72650   1.00
O2       0.72650    0.66180    0.72650   1.00
O2       0.72650    0.72650    0.66180   1.00
C1       0.75000    0.75000    0.85520   1.00
C1       0.75000    0.85520    0.75000   1.00
C1       0.64480    0.75000    0.75000   1.00
C1       0.85520    0.75000    0.75000   1.00
C1       0.75000    0.64480    0.75000   1.00
C1       0.75000    0.75000    0.64480   1.00
O1       0.25000    0.25000    0.75000   1.00
Zn1      0.21720    0.28280    0.78280   1.00
Zn1      0.28280    0.21720    0.78280   1.00
Zn1      0.28280    0.28280    0.71720   1.00
Zn1      0.21720    0.21720    0.71720   1.00
O2       0.22650    0.27350    0.83820   1.00
O2       0.22650    0.33820    0.77350   1.00
O2       0.16180    0.27350    0.77350   1.00
O2       0.27350    0.22650    0.83820   1.00
O2       0.33820    0.22650    0.77350   1.00
O2       0.27350    0.16180    0.77350   1.00
O2       0.27350    0.33820    0.72650   1.00
O2       0.33820    0.27350    0.72650   1.00
O2       0.27350    0.27350    0.66180   1.00
O2       0.16180    0.22650    0.72650   1.00
O2       0.22650    0.16180    0.72650   1.00
O2       0.22650    0.22650    0.66180   1.00
C1       0.25000    0.25000    0.85520   1.00
C1       0.25000    0.35520    0.75000   1.00
C1       0.14480    0.25000    0.75000   1.00
C1       0.35520    0.25000    0.75000   1.00
C1       0.25000    0.14480    0.75000   1.00
C1       0.25000    0.25000    0.64480   1.00
O1       0.25000    0.75000    0.25000   1.00
Zn1      0.21720    0.78280    0.28280   1.00
Zn1      0.28280    0.71720    0.28280   1.00
Zn1      0.28280    0.78280    0.21720   1.00
Zn1      0.21720    0.71720    0.21720   1.00
O2       0.22650    0.77350    0.33820   1.00
O2       0.22650    0.83820    0.27350   1.00
O2       0.16180    0.77350    0.27350   1.00
O2       0.27350    0.72650    0.33820   1.00
O2       0.33820    0.72650    0.27350   1.00
O2       0.27350    0.66180    0.27350   1.00
O2       0.27350    0.83820    0.22650   1.00
O2       0.33820    0.77350    0.22650   1.00
O2       0.27350    0.77350    0.16180   1.00
O2       0.16180    0.72650    0.22650   1.00
O2       0.22650    0.66180    0.22650   1.00
O2       0.22650    0.72650    0.16180   1.00
C1       0.25000    0.75000    0.35520   1.00
C1       0.25000    0.85520    0.25000   1.00
C1       0.14480    0.75000    0.25000   1.00
C1       0.35520    0.75000    0.25000   1.00
C1       0.25000    0.64480    0.25000   1.00
C1       0.25000    0.75000    0.14480   1.00
O1       0.75000    0.25000    0.25000   1.00
Zn1      0.71720    0.28280    0.28280   1.00
Zn1      0.78280    0.21720    0.28280   1.00
Zn1      0.78280    0.28280    0.21720   1.00
Zn1      0.71720    0.21720    0.21720   1.00
O2       0.72650    0.27350    0.33820   1.00
O2       0.72650    0.33820    0.27350   1.00
O2       0.66180    0.27350    0.27350   1.00
O2       0.77350    0.22650    0.33820   1.00
O2       0.83820    0.22650    0.27350   1.00
O2       0.77350    0.16180    0.27350   1.00
O2       0.77350    0.33820    0.22650   1.00
O2       0.83820    0.27350    0.22650   1.00
O2       0.77350    0.27350    0.16180   1.00
O2       0.66180    0.22650    0.22650   1.00
O2       0.72650    0.16180    0.22650   1.00
O2       0.72650    0.22650    0.16180   1.00
C1       0.75000    0.25000    0.35520   1.00
C1       0.75000    0.35520    0.25000   1.00
C1       0.64480    0.25000    0.25000   1.00
C1       0.85520    0.25000    0.25000   1.00
C1       0.75000    0.14480    0.25000   1.00
C1       0.75000    0.25000    0.14480   1.00
O1       0.25000    0.25000    0.25000   1.00
Zn1      0.28280    0.21720    0.21720   1.00
Zn1      0.21720    0.28280    0.21720   1.00
Zn1      0.21720    0.21720    0.28280   1.00
Zn1      0.28280    0.28280    0.28280   1.00
O2       0.27350    0.22650    0.16180   1.00
O2       0.27350    0.16180    0.22650   1.00
O2       0.33820    0.22650    0.22650   1.00
O2       0.22650    0.27350    0.16180   1.00
O2       0.16180    0.27350    0.22650   1.00
O2       0.22650    0.33820    0.22650   1.00
O2       0.22650    0.16180    0.27350   1.00
O2       0.16180    0.22650    0.27350   1.00
O2       0.22650    0.22650    0.33820   1.00
O2       0.33820    0.27350    0.27350   1.00
O2       0.27350    0.33820    0.27350   1.00
O2       0.27350    0.27350    0.33820   1.00
C1       0.25000    0.25000    0.14480   1.00
C1       0.25000    0.14480    0.25000   1.00
C1       0.35520    0.25000    0.25000   1.00
C1       0.14480    0.25000    0.25000   1.00
C1       0.25000    0.35520    0.25000   1.00
C1       0.25000    0.25000    0.35520   1.00
O1       0.75000    0.75000    0.25000   1.00
Zn1      0.78280    0.71720    0.21720   1.00
Zn1      0.71720    0.78280    0.21720   1.00
Zn1      0.71720    0.71720    0.28280   1.00
Zn1      0.78280    0.78280    0.28280   1.00
O2       0.77350    0.72650    0.16180   1.00
O2       0.77350    0.66180    0.22650   1.00
O2       0.83820    0.72650    0.22650   1.00
O2       0.72650    0.77350    0.16180   1.00
O2       0.66180    0.77350    0.22650   1.00
O2       0.72650    0.83820    0.22650   1.00
O2       0.72650    0.66180    0.27350   1.00
O2       0.66180    0.72650    0.27350   1.00
O2       0.72650    0.72650    0.33820   1.00
O2       0.83820    0.77350    0.27350   1.00
O2       0.77350    0.83820    0.27350   1.00
O2       0.77350    0.77350    0.33820   1.00
C1       0.75000    0.75000    0.14480   1.00
C1       0.75000    0.64480    0.25000   1.00
C1       0.85520    0.75000    0.25000   1.00
C1       0.64480    0.75000    0.25000   1.00
C1       0.75000    0.85520    0.25000   1.00
C1       0.75000    0.75000    0.35520   1.00
O1       0.75000    0.25000    0.75000   1.00
Zn1      0.78280    0.21720    0.71720   1.00
Zn1      0.71720    0.28280    0.71720   1.00
Zn1      0.71720    0.21720    0.78280   1.00
Zn1      0.78280    0.28280    0.78280   1.00
O2       0.77350    0.22650    0.66180   1.00
O2       0.77350    0.16180    0.72650   1.00
O2       0.83820    0.22650    0.72650   1.00
O2       0.72650    0.27350    0.66180   1.00
O2       0.66180    0.27350    0.72650   1.00
O2       0.72650    0.33820    0.72650   1.00
O2       0.72650    0.16180    0.77350   1.00
O2       0.66180    0.22650    0.77350   1.00
O2       0.72650    0.22650    0.83820   1.00
O2       0.83820    0.27350    0.77350   1.00
O2       0.77350    0.33820    0.77350   1.00
O2       0.77350    0.27350    0.83820   1.00
C1       0.75000    0.25000    0.64480   1.00
C1       0.75000    0.14480    0.75000   1.00
C1       0.85520    0.25000    0.75000   1.00
C1       0.64480    0.25000    0.75000   1.00
C1       0.75000    0.35520    0.75000   1.00
C1       0.75000    0.25000    0.85520   1.00
O1       0.25000    0.75000    0.75000   1.00
Zn1      0.28280    0.71720    0.71720   1.00
Zn1      0.21720    0.78280    0.71720   1.00
Zn1      0.21720    0.71720    0.78280   1.00
Zn1      0.28280    0.78280    0.78280   1.00
O2       0.27350    0.72650    0.66180   1.00
O2       0.27350    0.66180    0.72650   1.00
O2       0.33820    0.72650    0.72650   1.00
O2       0.22650    0.77350    0.66180   1.00
O2       0.16180    0.77350    0.72650   1.00
O2       0.22650    0.83820    0.72650   1.00
O2       0.22650    0.66180    0.77350   1.00
O2       0.16180    0.72650    0.77350   1.00
O2       0.22650    0.72650    0.83820   1.00
O2       0.33820    0.77350    0.77350   1.00
O2       0.27350    0.83820    0.77350   1.00
O2       0.27350    0.77350    0.83820   1.00
C1       0.25000    0.75000    0.64480   1.00
C1       0.25000    0.64480    0.75000   1.00
C1       0.35520    0.75000    0.75000   1.00
C1       0.14480    0.75000    0.75000   1.00
C1       0.25000    0.85520    0.75000   1.00
C1       0.25000    0.75000    0.85520   1.00
O1       0.91500    0.91500    0.91500   1.00
Zn1      0.88220    0.94780    0.94780   1.00
Zn1      0.94780    0.88220    0.94780   1.00
Zn1      0.94780    0.94780    0.88220   1.00
Zn1      0.88220    0.88220    0.88220   1.00
O2       0.89150    0.93850    1.00320   1.00
O2       0.89150    1.00320    0.93850   1.00
O2       0.82680    0.93850    0.93850   1.00
O2       0.93850    0.89150    1.00320   1.00
O2       1.00320    0.89150    0.93850   1.00
O2       0.93850    0.82680    0.93850   1.00
O2       0.93850    1.00320    0.89150   1.00
O2       1.00320    0.93850    0.89150   1.00
O2       0.93850    0.93850    0.82680   1.00
O2       0.82680    0.89150    0.89150   1.00
O2       0.89150    0.82680    0.89150   1.00
O2       0.89150    0.89150    0.82680   1.00
C1       0.91500    0.91500    1.02020   1.00
C1       0.91500    1.02020    0.91500   1.00
C1       0.80980    0.91500    0.91500   1.00
C1       1.02020    0.91500    0.91500   1.00
C1       0.91500    0.80980    0.91500   1.00
C1       0.91500    0.91500    0.80980   1.00
O1       0.41500    0.41500    0.91500   1.00
Zn1      0.38220    0.44780    0.94780   1.00
Zn1      0.44780    0.38220    0.94780   1.00
Zn1      0.44780    0.44780    0.88220   1.00
Zn1      0.38220    0.38220    0.88220   1.00
O2       0.39150    0.43850    1.00320   1.00
O2       0.39150    0.50320    0.93850   1.00
O2       0.32680    0.43850    0.93850   1.00
O2       0.43850    0.39150    1.00320   1.00
O2       0.50320    0.39150    0.93850   1.00
O2       0.43850    0.32680    0.93850   1.00
O2       0.43850    0.50320    0.89150   1.00
O2       0.50320    0.43850    0.89150   1.00
O2       0.43850    0.43850    0.82680   1.00
O2       0.32680    0.39150    0.89150   1.00
O2       0.39150    0.32680    0.89150   1.00
O2       0.39150    0.39150    0.82680   1.00
C1       0.41500    0.41500    1.02020   1.00
C1       0.41500    0.52020    0.91500   1.00
C1       0.30980    0.41500    0.91500   1.00
C1       0.52020    0.41500    0.91500   1.00
C1       0.41500    0.30980    0.91500   1.00
C1       0.41500    0.41500    0.80980   1.00
O1       0.41500    0.91500    0.41500   1.00
Zn1      0.38220    0.94780    0.44780   1.00
Zn1      0.44780    0.88220    0.44780   1.00
Zn1      0.44780    0.94780    0.38220   1.00
Zn1      0.38220    0.88220    0.38220   1.00
O2       0.39150    0.93850    0.50320   1.00
O2       0.39150    1.00320    0.43850   1.00
O2       0.32680    0.93850    0.43850   1.00
O2       0.43850    0.89150    0.50320   1.00
O2       0.50320    0.89150    0.43850   1.00
O2       0.43850    0.82680    0.43850   1.00
O2       0.43850    1.00320    0.39150   1.00
O2       0.50320    0.93850    0.39150   1.00
O2       0.43850    0.93850    0.32680   1.00
O2       0.32680    0.89150    0.39150   1.00
O2       0.39150    0.82680    0.39150   1.00
O2       0.39150    0.89150    0.32680   1.00
C1       0.41500    0.91500    0.52020   1.00
C1       0.41500    1.02020    0.41500   1.00
C1       0.30980    0.91500    0.41500   1.00
C1       0.52020    0.91500    0.41500   1.00
C1       0.41500    0.80980    0.41500   1.00
C1       0.41500    0.91500    0.30980   1.00
O1       0.91500    0.41500    0.41500   1.00
Zn1      0.88220    0.44780    0.44780   1.00
Zn1      0.94780    0.38220    0.44780   1.00
Zn1      0.94780    0.44780    0.38220   1.00
Zn1      0.88220    0.38220    0.38220   1.00
O2       0.89150    0.43850    0.50320   1.00
O2       0.89150    0.50320    0.43850   1.00
O2       0.82680    0.43850    0.43850   1.00
O2       0.93850    0.39150    0.50320   1.00
O2       1.00320    0.39150    0.43850   1.00
O2       0.93850    0.32680    0.43850   1.00
O2       0.93850    0.50320    0.39150   1.00
O2       1.00320    0.43850    0.39150   1.00
O2       0.93850    0.43850    0.32680   1.00
O2       0.82680    0.39150    0.39150   1.00
O2       0.89150    0.32680    0.39150   1.00
O2       0.89150    0.39150    0.32680   1.00
C1       0.91500    0.41500    0.52020   1.00
C1       0.91500    0.52020    0.41500   1.00
C1       0.80980    0.41500    0.41500   1.00
C1       1.02020    0.41500    0.41500   1.00
C1       0.91500    0.30980    0.41500   1.00
C1       0.91500    0.41500    0.30980   1.00
O1       0.41500    0.41500    0.41500   1.00
Zn1      0.44780    0.38220    0.38220   1.00
Zn1      0.38220    0.44780    0.38220   1.00
Zn1      0.38220    0.38220    0.44780   1.00
Zn1      0.44780    0.44780    0.44780   1.00
O2       0.43850    0.39150    0.32680   1.00
O2       0.43850    0.32680    0.39150   1.00
O2       0.50320    0.39150    0.39150   1.00
O2       0.39150    0.43850    0.32680   1.00
O2       0.32680    0.43850    0.39150   1.00
O2       0.39150    0.50320    0.39150   1.00
O2       0.39150    0.32680    0.43850   1.00
O2       0.32680    0.39150    0.43850   1.00
O2       0.39150    0.39150    0.50320   1.00
O2       0.50320    0.43850    0.43850   1.00
O2       0.43850    0.50320    0.43850   1.00
O2       0.43850    0.43850    0.50320   1.00
C1       0.41500    0.41500    0.30980   1.00
C1       0.41500    0.30980    0.41500   1.00
C1       0.52020    0.41500    0.41500   1.00
C1       0.30980    0.41500    0.41500   1.00
C1       0.41500    0.52020    0.41500   1.00
C1       0.41500    0.41500    0.52020   1.00
O1       0.91500    0.91500    0.41500   1.00
Zn1      0.94780    0.88220    0.38220   1.00
Zn1      0.88220    0.94780    0.38220   1.00
Zn1      0.88220    0.88220    0.44780   1.00
Zn1      0.94780    0.94780    0.44780   1.00
O2       0.93850    0.89150    0.32680   1.00
O2       0.93850    0.82680    0.39150   1.00
O2       1.00320    0.89150    0.39150   1.00
O2       0.89150    0.93850    0.32680   1.00
O2       0.82680    0.93850    0.39150   1.00
O2       0.89150    1.00320    0.39150   1.00
O2       0.89150    0.82680    0.43850   1.00
O2       0.82680    0.89150    0.43850   1.00
O2       0.89150    0.89150    0.50320   1.00
O2       1.00320    0.93850    0.43850   1.00
O2       0.93850    1.00320    0.43850   1.00
O2       0.93850    0.93850    0.50320   1.00
C1       0.91500    0.91500    0.30980   1.00
C1       0.91500    0.80980    0.41500   1.00
C1       1.02020    0.91500    0.41500   1.00
C1       0.80980    0.91500    0.41500   1.00
C1       0.91500    1.02020    0.41500   1.00
C1       0.91500    0.91500    0.52020   1.00
O1       0.91500    0.41500    0.91500   1.00
Zn1      0.94780    0.38220    0.88220   1.00
Zn1      0.88220    0.44780    0.88220   1.00
Zn1      0.88220    0.38220    0.94780   1.00
Zn1      0.94780    0.44780    0.94780   1.00
O2       0.93850    0.39150    0.82680   1.00
O2       0.93850    0.32680    0.89150   1.00
O2       1.00320    0.39150    0.89150   1.00
O2       0.89150    0.43850    0.82680   1.00
O2       0.82680    0.43850    0.89150   1.00
O2       0.89150    0.50320    0.89150   1.00
O2       0.89150    0.32680    0.93850   1.00
O2       0.82680    0.39150    0.93850   1.00
O2       0.89150    0.39150    1.00320   1.00
O2       1.00320    0.43850    0.93850   1.00
O2       0.93850    0.50320    0.93850   1.00
O2       0.93850    0.43850    1.00320   1.00
C1       0.91500    0.41500    0.80980   1.00
C1       0.91500    0.30980    0.91500   1.00
C1       1.02020    0.41500    0.91500   1.00
C1       0.80980    0.41500    0.91500   1.00
C1       0.91500    0.52020    0.91500   1.00
C1       0.91500    0.41500    1.02020   1.00
O1       0.41500    0.91500    0.91500   1.00
Zn1      0.44780    0.88220    0.88220   1.00
Zn1      0.38220    0.94780    0.88220   1.00
Zn1      0.38220    0.88220    0.94780   1.00
Zn1      0.44780    0.94780    0.94780   1.00
O2       0.43850    0.89150    0.82680   1.00
O2       0.43850    0.82680    0.89150   1.00
O2       0.50320    0.89150    0.89150   1.00
O2       0.39150    0.93850    0.82680   1.00
O2       0.32680    0.93850    0.89150   1.00
O2       0.39150    1.00320    0.89150   1.00
O2       0.39150    0.82680    0.93850   1.00
O2       0.32680    0.89150    0.93850   1.00
O2       0.39150    0.89150    1.00320   1.00
O2       0.50320    0.93850    0.93850   1.00
O2       0.43850    1.00320    0.93850   1.00
O2       0.43850    0.93850    1.00320   1.00
C1       0.41500    0.91500    0.80980   1.00
C1       0.41500    0.80980    0.91500   1.00
C1       0.52020    0.91500    0.91500   1.00
C1       0.30980    0.91500    0.91500   1.00
C1       0.41500    1.02020    0.91500   1.00
C1       0.41500    0.91500    1.02020   1.00
C4       0.74884    0.74719    1.02084   1.00
C4       0.74855    0.74785    0.97912   1.00
C3       0.72057    0.72724    1.04364   1.00
C3       0.71806    0.73169    0.95616   1.00
C3       0.77859    0.76802    1.04123   1.00
C3       0.78038    0.76549    0.95886   1.00
C2       0.75034    0.74885    1.10512   1.00
C2       0.74966    0.75115    0.89488   1.00
C3       0.72114    0.72822    1.08462   1.00
C3       0.71876    0.73296    0.91519   1.00
C3       0.77909    0.76804    1.08258   1.00
C3       0.77971    0.76794    0.91762   1.00
H1       0.69881    0.71131    1.03115   1.00
H1       0.69434    0.71874    0.96852   1.00
C5       0.80775    0.78856    1.02020   1.00
C5       0.81255    0.78089    0.97980   1.00
H1       0.69977    0.71348    1.09955   1.00
H1       0.69608    0.72050    0.90010   1.00
H1       0.80123    0.78221    1.09680   1.00
H1       0.80147    0.78284    0.90368   1.00
O3       0.83234    0.81377    1.03961   1.00
O3       0.84679    0.79094    0.96099   1.00
Si1      0.82138    0.86006    1.04247   1.00
Si1      0.87929    0.75712    0.95279   1.00
C6       0.85869    0.87343    1.07538   1.00
C6       0.82925    0.88064    0.99598   1.00
C6       0.77472    0.86875    1.06253   1.00
C6       0.86831    0.70874    0.96693   1.00
C6       0.88552    0.75905    0.90198   1.00
C6       0.92314    0.77252    0.97477   1.00
C6       0.86370    0.84638    1.11194   1.00
H2       0.88496    0.86895    1.05791   1.00
C6       0.86177    0.91621    1.09147   1.00
H2       0.85085    0.86081    0.98358   1.00
C6       0.79453    0.88124    0.96634   1.00
C6       0.84788    0.92226    0.99336   1.00
H2       0.77490    0.84996    1.08831   1.00
C6       0.76599    0.91099    1.07772   1.00
C6       0.73730    0.85752    1.03849   1.00
C6       0.85804    0.70097    1.01071   1.00
C6       0.83866    0.68421    0.94225   1.00
H2       0.89606    0.69386    0.96212   1.00
H2       0.85817    0.74747    0.89051   1.00
C6       0.88959    0.80078    0.88378   1.00
C6       0.91886    0.73366    0.88393   1.00
H2       0.93554    0.79300    0.95375   1.00
C6       0.91911    0.79627    1.01336   1.00
C6       0.95552    0.74119    0.98244   1.00
H2       0.86814    0.81597    1.10346   1.00
H2       0.83809    0.84770    1.13090   1.00
H2       0.88918    0.85486    1.12917   1.00
H2       0.89238    0.92396    1.09608   1.00
H2       0.84937    0.93776    1.07178   1.00
H2       0.84725    0.91961    1.11964   1.00
H2       0.80506    0.88677    0.93672   1.00
H2       0.77921    0.85345    0.96532   1.00
H2       0.77363    0.90418    0.97352   1.00
H2       0.87580    0.92349    1.00862   1.00
H2       0.85395    0.93037    0.96308   1.00
H2       0.82839    0.94437    1.00550   1.00
H2       0.77170    0.93274    1.05514   1.00
H2       0.73564    0.91435    1.08708   1.00
H2       0.78337    0.91787    1.10332   1.00
H2       0.72808    0.88099    1.01902   1.00
H2       0.74101    0.83168    1.02068   1.00
H2       0.71295    0.85165    1.05828   1.00
H2       0.82745    0.70703    1.01688   1.00
H2       0.86313    0.67035    1.01809   1.00
H2       0.87580    0.71835    1.03048   1.00
H2       0.83917    0.65359    0.95125   1.00
H2       0.80878    0.69435    0.94574   1.00
H2       0.84573    0.68449    0.91122   1.00
H2       0.88661    0.79942    0.85202   1.00
H2       0.86676    0.82037    0.89435   1.00
H2       0.91782    0.81396    0.89035   1.00
H2       0.91760    0.70354    0.89416   1.00
H2       0.91621    0.73279    0.85212   1.00
H2       0.94761    0.74556    0.89085   1.00
H2       0.90553    0.77927    1.03656   1.00
H2       0.94739    0.80663    1.02381   1.00
H2       0.90117    0.82189    1.00834   1.00
H2       0.98310    0.75513    0.99044   1.00
H2       0.94736    0.72158    1.00622   1.00
H2       0.96130    0.72362    0.95657   1.00
C4       0.74719    1.02084    0.74884   1.00
C4       0.74785    0.97912    0.74855   1.00
C3       0.72724    1.04364    0.72057   1.00
C3       0.73169    0.95616    0.71806   1.00
C3       0.76802    1.04123    0.77859   1.00
C3       0.76549    0.95886    0.78038   1.00
C2       0.74885    1.10512    0.75034   1.00
C2       0.75115    0.89488    0.74966   1.00
C3       0.72822    1.08462    0.72114   1.00
C3       0.73296    0.91519    0.71876   1.00
C3       0.76804    1.08258    0.77909   1.00
C3       0.76794    0.91762    0.77971   1.00
H1       0.71131    1.03115    0.69881   1.00
H1       0.71874    0.96852    0.69434   1.00
C5       0.78856    1.02020    0.80775   1.00
C5       0.78089    0.97980    0.81255   1.00
H1       0.71348    1.09955    0.69977   1.00
H1       0.72050    0.90010    0.69608   1.00
H1       0.78221    1.09680    0.80123   1.00
H1       0.78284    0.90368    0.80147   1.00
O3       0.81377    1.03961    0.83234   1.00
O3       0.79094    0.96099    0.84679   1.00
Si1      0.86006    1.04247    0.82138   1.00
Si1      0.75712    0.95279    0.87929   1.00
C6       0.87343    1.07538    0.85869   1.00
C6       0.88064    0.99598    0.82925   1.00
C6       0.86875    1.06253    0.77472   1.00
C6       0.70874    0.96693    0.86831   1.00
C6       0.75905    0.90198    0.88552   1.00
C6       0.77252    0.97477    0.92314   1.00
C6       0.84638    1.11194    0.86370   1.00
H2       0.86895    1.05791    0.88496   1.00
C6       0.91621    1.09147    0.86177   1.00
H2       0.86081    0.98358    0.85085   1.00
C6       0.88124    0.96634    0.79453   1.00
C6       0.92226    0.99336    0.84788   1.00
H2       0.84996    1.08831    0.77490   1.00
C6       0.91099    1.07772    0.76599   1.00
C6       0.85752    1.03849    0.73730   1.00
C6       0.70097    1.01071    0.85804   1.00
C6       0.68421    0.94225    0.83866   1.00
H2       0.69386    0.96212    0.89606   1.00
H2       0.74747    0.89051    0.85817   1.00
C6       0.80078    0.88378    0.88959   1.00
C6       0.73366    0.88393    0.91886   1.00
H2       0.79300    0.95375    0.93554   1.00
C6       0.79627    1.01336    0.91911   1.00
C6       0.74119    0.98244    0.95552   1.00
H2       0.81597    1.10346    0.86814   1.00
H2       0.84770    1.13090    0.83809   1.00
H2       0.85486    1.12917    0.88918   1.00
H2       0.92396    1.09608    0.89238   1.00
H2       0.93776    1.07178    0.84937   1.00
H2       0.91961    1.11964    0.84725   1.00
H2       0.88677    0.93672    0.80506   1.00
H2       0.85345    0.96532    0.77921   1.00
H2       0.90418    0.97352    0.77363   1.00
H2       0.92349    1.00862    0.87580   1.00
H2       0.93037    0.96308    0.85395   1.00
H2       0.94437    1.00550    0.82839   1.00
H2       0.93274    1.05514    0.77170   1.00
H2       0.91435    1.08708    0.73564   1.00
H2       0.91787    1.10332    0.78337   1.00
H2       0.88099    1.01902    0.72808   1.00
H2       0.83168    1.02068    0.74101   1.00
H2       0.85165    1.05828    0.71295   1.00
H2       0.70703    1.01688    0.82745   1.00
H2       0.67035    1.01809    0.86313   1.00
H2       0.71835    1.03048    0.87580   1.00
H2       0.65359    0.95125    0.83917   1.00
H2       0.69435    0.94574    0.80878   1.00
H2       0.68449    0.91122    0.84573   1.00
H2       0.79942    0.85202    0.88661   1.00
H2       0.82037    0.89435    0.86676   1.00
H2       0.81396    0.89035    0.91782   1.00
H2       0.70354    0.89416    0.91760   1.00
H2       0.73279    0.85212    0.91621   1.00
H2       0.74556    0.89085    0.94761   1.00
H2       0.77927    1.03656    0.90553   1.00
H2       0.80663    1.02381    0.94739   1.00
H2       0.82189    1.00834    0.90117   1.00
H2       0.75513    0.99044    0.98310   1.00
H2       0.72158    1.00622    0.94736   1.00
H2       0.72362    0.95657    0.96130   1.00
C4       0.47916    0.74884    0.75281   1.00
C4       0.52088    0.74855    0.75215   1.00
C3       0.45636    0.72057    0.77276   1.00
C3       0.54384    0.71806    0.76831   1.00
C3       0.45877    0.77859    0.73198   1.00
C3       0.54114    0.78038    0.73451   1.00
C2       0.39488    0.75034    0.75115   1.00
C2       0.60512    0.74966    0.74885   1.00
C3       0.41538    0.72114    0.77178   1.00
C3       0.58481    0.71876    0.76704   1.00
C3       0.41742    0.77909    0.73196   1.00
C3       0.58238    0.77971    0.73206   1.00
H1       0.46885    0.69881    0.78869   1.00
H1       0.53148    0.69434    0.78126   1.00
C5       0.47980    0.80775    0.71144   1.00
C5       0.52020    0.81255    0.71911   1.00
H1       0.40045    0.69977    0.78652   1.00
H1       0.59990    0.69608    0.77950   1.00
H1       0.40320    0.80123    0.71779   1.00
H1       0.59632    0.80147    0.71716   1.00
O3       0.46039    0.83234    0.68623   1.00
O3       0.53901    0.84679    0.70906   1.00
Si1      0.45753    0.82138    0.63994   1.00
Si1      0.54721    0.87929    0.74288   1.00
C6       0.42462    0.85869    0.62657   1.00
C6       0.50402    0.82925    0.61936   1.00
C6       0.43747    0.77472    0.63125   1.00
C6       0.53307    0.86831    0.79126   1.00
C6       0.59802    0.88552    0.74095   1.00
C6       0.52523    0.92314    0.72748   1.00
C6       0.38806    0.86370    0.65362   1.00
H2       0.44209    0.88496    0.63105   1.00
C6       0.40853    0.86177    0.58379   1.00
H2       0.51642    0.85085    0.63919   1.00
C6       0.53366    0.79453    0.61876   1.00
C6       0.50664    0.84788    0.57774   1.00
H2       0.41169    0.77490    0.65004   1.00
C6       0.42228    0.76599    0.58901   1.00
C6       0.46151    0.73730    0.64248   1.00
C6       0.48929    0.85804    0.79903   1.00
C6       0.55775    0.83866    0.81579   1.00
H2       0.53788    0.89606    0.80614   1.00
H2       0.60949    0.85817    0.75253   1.00
C6       0.61622    0.88959    0.69922   1.00
C6       0.61607    0.91886    0.76634   1.00
H2       0.54625    0.93554    0.70700   1.00
C6       0.48664    0.91911    0.70373   1.00
C6       0.51756    0.95552    0.75881   1.00
H2       0.39654    0.86814    0.68403   1.00
H2       0.36910    0.83809    0.65230   1.00
H2       0.37083    0.88918    0.64514   1.00
H2       0.40392    0.89238    0.57604   1.00
H2       0.42822    0.84937    0.56224   1.00
H2       0.38036    0.84725    0.58039   1.00
H2       0.56328    0.80506    0.61323   1.00
H2       0.53468    0.77921    0.64655   1.00
H2       0.52648    0.77363    0.59582   1.00
H2       0.49138    0.87580    0.57651   1.00
H2       0.53692    0.85395    0.56963   1.00
H2       0.49450    0.82839    0.55563   1.00
H2       0.44486    0.77170    0.56726   1.00
H2       0.41292    0.73564    0.58565   1.00
H2       0.39668    0.78337    0.58213   1.00
H2       0.48098    0.72808    0.61901   1.00
H2       0.47932    0.74101    0.66832   1.00
H2       0.44172    0.71295    0.64835   1.00
H2       0.48312    0.82745    0.79297   1.00
H2       0.48191    0.86313    0.82965   1.00
H2       0.46952    0.87580    0.78165   1.00
H2       0.54875    0.83917    0.84641   1.00
H2       0.55426    0.80878    0.80565   1.00
H2       0.58878    0.84573    0.81551   1.00
H2       0.64798    0.88661    0.70058   1.00
H2       0.60565    0.86676    0.67963   1.00
H2       0.60965    0.91782    0.68604   1.00
H2       0.60584    0.91760    0.79646   1.00
H2       0.64788    0.91621    0.76721   1.00
H2       0.60915    0.94761    0.75444   1.00
H2       0.46344    0.90553    0.72073   1.00
H2       0.47619    0.94739    0.69337   1.00
H2       0.49166    0.90117    0.67811   1.00
H2       0.50956    0.98310    0.74487   1.00
H2       0.49378    0.94736    0.77842   1.00
H2       0.54343    0.96130    0.77638   1.00
C4       1.02084    0.74884    0.74719   1.00
C4       0.97912    0.74855    0.74785   1.00
C3       1.04364    0.72057    0.72724   1.00
C3       0.95616    0.71806    0.73169   1.00
C3       1.04123    0.77859    0.76802   1.00
C3       0.95886    0.78038    0.76549   1.00
C2       1.10512    0.75034    0.74885   1.00
C2       0.89488    0.74966    0.75115   1.00
C3       1.08462    0.72114    0.72822   1.00
C3       0.91519    0.71876    0.73296   1.00
C3       1.08258    0.77909    0.76804   1.00
C3       0.91762    0.77971    0.76794   1.00
H1       1.03115    0.69881    0.71131   1.00
H1       0.96852    0.69434    0.71874   1.00
C5       1.02020    0.80775    0.78856   1.00
C5       0.97980    0.81255    0.78089   1.00
H1       1.09955    0.69977    0.71348   1.00
H1       0.90010    0.69608    0.72050   1.00
H1       1.09680    0.80123    0.78221   1.00
H1       0.90368    0.80147    0.78284   1.00
O3       1.03961    0.83234    0.81377   1.00
O3       0.96099    0.84679    0.79094   1.00
Si1      1.04247    0.82138    0.86006   1.00
Si1      0.95279    0.87929    0.75712   1.00
C6       1.07538    0.85869    0.87343   1.00
C6       0.99598    0.82925    0.88064   1.00
C6       1.06253    0.77472    0.86875   1.00
C6       0.96693    0.86831    0.70874   1.00
C6       0.90198    0.88552    0.75905   1.00
C6       0.97477    0.92314    0.77252   1.00
C6       1.11194    0.86370    0.84638   1.00
H2       1.05791    0.88496    0.86895   1.00
C6       1.09147    0.86177    0.91621   1.00
H2       0.98358    0.85085    0.86081   1.00
C6       0.96634    0.79453    0.88124   1.00
C6       0.99336    0.84788    0.92226   1.00
H2       1.08831    0.77490    0.84996   1.00
C6       1.07772    0.76599    0.91099   1.00
C6       1.03849    0.73730    0.85752   1.00
C6       1.01071    0.85804    0.70097   1.00
C6       0.94225    0.83866    0.68421   1.00
H2       0.96212    0.89606    0.69386   1.00
H2       0.89051    0.85817    0.74747   1.00
C6       0.88378    0.88959    0.80078   1.00
C6       0.88393    0.91886    0.73366   1.00
H2       0.95375    0.93554    0.79300   1.00
C6       1.01336    0.91911    0.79627   1.00
C6       0.98244    0.95552    0.74119   1.00
H2       1.10346    0.86814    0.81597   1.00
H2       1.13090    0.83809    0.84770   1.00
H2       1.12917    0.88918    0.85486   1.00
H2       1.09608    0.89238    0.92396   1.00
H2       1.07178    0.84937    0.93776   1.00
H2       1.11964    0.84725    0.91961   1.00
H2       0.93672    0.80506    0.88677   1.00
H2       0.96532    0.77921    0.85345   1.00
H2       0.97352    0.77363    0.90418   1.00
H2       1.00862    0.87580    0.92349   1.00
H2       0.96308    0.85395    0.93037   1.00
H2       1.00550    0.82839    0.94437   1.00
H2       1.05514    0.77170    0.93274   1.00
H2       1.08708    0.73564    0.91435   1.00
H2       1.10332    0.78337    0.91787   1.00
H2       1.01902    0.72808    0.88099   1.00
H2       1.02068    0.74101    0.83168   1.00
H2       1.05828    0.71295    0.85165   1.00
H2       1.01688    0.82745    0.70703   1.00
H2       1.01809    0.86313    0.67035   1.00
H2       1.03048    0.87580    0.71835   1.00
H2       0.95125    0.83917    0.65359   1.00
H2       0.94574    0.80878    0.69435   1.00
H2       0.91122    0.84573    0.68449   1.00
H2       0.85202    0.88661    0.79942   1.00
H2       0.89435    0.86676    0.82037   1.00
H2       0.89035    0.91782    0.81396   1.00
H2       0.89416    0.91760    0.70354   1.00
H2       0.85212    0.91621    0.73279   1.00
H2       0.89085    0.94761    0.74556   1.00
H2       1.03656    0.90553    0.77927   1.00
H2       1.02381    0.94739    0.80663   1.00
H2       1.00834    0.90117    0.82189   1.00
H2       0.99044    0.98310    0.75513   1.00
H2       1.00622    0.94736    0.72158   1.00
H2       0.95657    0.96130    0.72362   1.00
C4       0.75281    0.47916    0.74884   1.00
C4       0.75215    0.52088    0.74855   1.00
C3       0.77276    0.45636    0.72057   1.00
C3       0.76831    0.54384    0.71806   1.00
C3       0.73198    0.45877    0.77859   1.00
C3       0.73451    0.54114    0.78038   1.00
C2       0.75115    0.39488    0.75034   1.00
C2       0.74885    0.60512    0.74966   1.00
C3       0.77178    0.41538    0.72114   1.00
C3       0.76704    0.58481    0.71876   1.00
C3       0.73196    0.41742    0.77909   1.00
C3       0.73206    0.58238    0.77971   1.00
H1       0.78869    0.46885    0.69881   1.00
H1       0.78126    0.53148    0.69434   1.00
C5       0.71144    0.47980    0.80775   1.00
C5       0.71911    0.52020    0.81255   1.00
H1       0.78652    0.40045    0.69977   1.00
H1       0.77950    0.59990    0.69608   1.00
H1       0.71779    0.40320    0.80123   1.00
H1       0.71716    0.59632    0.80147   1.00
O3       0.68623    0.46039    0.83234   1.00
O3       0.70906    0.53901    0.84679   1.00
Si1      0.63994    0.45753    0.82138   1.00
Si1      0.74288    0.54721    0.87929   1.00
C6       0.62657    0.42462    0.85869   1.00
C6       0.61936    0.50402    0.82925   1.00
C6       0.63125    0.43747    0.77472   1.00
C6       0.79126    0.53307    0.86831   1.00
C6       0.74095    0.59802    0.88552   1.00
C6       0.72748    0.52523    0.92314   1.00
C6       0.65362    0.38806    0.86370   1.00
H2       0.63105    0.44209    0.88496   1.00
C6       0.58379    0.40853    0.86177   1.00
H2       0.63919    0.51642    0.85085   1.00
C6       0.61876    0.53366    0.79453   1.00
C6       0.57774    0.50664    0.84788   1.00
H2       0.65004    0.41169    0.77490   1.00
C6       0.58901    0.42228    0.76599   1.00
C6       0.64248    0.46151    0.73730   1.00
C6       0.79903    0.48929    0.85804   1.00
C6       0.81579    0.55775    0.83866   1.00
H2       0.80614    0.53788    0.89606   1.00
H2       0.75253    0.60949    0.85817   1.00
C6       0.69922    0.61622    0.88959   1.00
C6       0.76634    0.61607    0.91886   1.00
H2       0.70700    0.54625    0.93554   1.00
C6       0.70373    0.48664    0.91911   1.00
C6       0.75881    0.51756    0.95552   1.00
H2       0.68403    0.39654    0.86814   1.00
H2       0.65230    0.36910    0.83809   1.00
H2       0.64514    0.37083    0.88918   1.00
H2       0.57604    0.40392    0.89238   1.00
H2       0.56224    0.42822    0.84937   1.00
H2       0.58039    0.38036    0.84725   1.00
H2       0.61323    0.56328    0.80506   1.00
H2       0.64655    0.53468    0.77921   1.00
H2       0.59582    0.52648    0.77363   1.00
H2       0.57651    0.49138    0.87580   1.00
H2       0.56963    0.53692    0.85395   1.00
H2       0.55563    0.49450    0.82839   1.00
H2       0.56726    0.44486    0.77170   1.00
H2       0.58565    0.41292    0.73564   1.00
H2       0.58213    0.39668    0.78337   1.00
H2       0.61901    0.48098    0.72808   1.00
H2       0.66832    0.47932    0.74101   1.00
H2       0.64835    0.44172    0.71295   1.00
H2       0.79297    0.48312    0.82745   1.00
H2       0.82965    0.48191    0.86313   1.00
H2       0.78165    0.46952    0.87580   1.00
H2       0.84641    0.54875    0.83917   1.00
H2       0.80565    0.55426    0.80878   1.00
H2       0.81551    0.58878    0.84573   1.00
H2       0.70058    0.64798    0.88661   1.00
H2       0.67963    0.60565    0.86676   1.00
H2       0.68604    0.60965    0.91782   1.00
H2       0.79646    0.60584    0.91760   1.00
H2       0.76721    0.64788    0.91621   1.00
H2       0.75444    0.60915    0.94761   1.00
H2       0.72073    0.46344    0.90553   1.00
H2       0.69337    0.47619    0.94739   1.00
H2       0.67811    0.49166    0.90117   1.00
H2       0.74487    0.50956    0.98310   1.00
H2       0.77842    0.49378    0.94736   1.00
H2       0.77638    0.54343    0.96130   1.00
C4       0.74884    0.75281    0.47916   1.00
C4       0.74855    0.75215    0.52088   1.00
C3       0.72057    0.77276    0.45636   1.00
C3       0.71806    0.76831    0.54384   1.00
C3       0.77859    0.73198    0.45877   1.00
C3       0.78038    0.73451    0.54114   1.00
C2       0.75034    0.75115    0.39488   1.00
C2       0.74966    0.74885    0.60512   1.00
C3       0.72114    0.77178    0.41538   1.00
C3       0.71876    0.76704    0.58481   1.00
C3       0.77909    0.73196    0.41742   1.00
C3       0.77971    0.73206    0.58238   1.00
H1       0.69881    0.78869    0.46885   1.00
H1       0.69434    0.78126    0.53148   1.00
C5       0.80775    0.71144    0.47980   1.00
C5       0.81255    0.71911    0.52020   1.00
H1       0.69977    0.78652    0.40045   1.00
H1       0.69608    0.77950    0.59990   1.00
H1       0.80123    0.71779    0.40320   1.00
H1       0.80147    0.71716    0.59632   1.00
O3       0.83234    0.68623    0.46039   1.00
O3       0.84679    0.70906    0.53901   1.00
Si1      0.82138    0.63994    0.45753   1.00
Si1      0.87929    0.74288    0.54721   1.00
C6       0.85869    0.62657    0.42462   1.00
C6       0.82925    0.61936    0.50402   1.00
C6       0.77472    0.63125    0.43747   1.00
C6       0.86831    0.79126    0.53307   1.00
C6       0.88552    0.74095    0.59802   1.00
C6       0.92314    0.72748    0.52523   1.00
C6       0.86370    0.65362    0.38806   1.00
H2       0.88496    0.63105    0.44209   1.00
C6       0.86177    0.58379    0.40853   1.00
H2       0.85085    0.63919    0.51642   1.00
C6       0.79453    0.61876    0.53366   1.00
C6       0.84788    0.57774    0.50664   1.00
H2       0.77490    0.65004    0.41169   1.00
C6       0.76599    0.58901    0.42228   1.00
C6       0.73730    0.64248    0.46151   1.00
C6       0.85804    0.79903    0.48929   1.00
C6       0.83866    0.81579    0.55775   1.00
H2       0.89606    0.80614    0.53788   1.00
H2       0.85817    0.75253    0.60949   1.00
C6       0.88959    0.69922    0.61622   1.00
C6       0.91886    0.76634    0.61607   1.00
H2       0.93554    0.70700    0.54625   1.00
C6       0.91911    0.70373    0.48664   1.00
C6       0.95552    0.75881    0.51756   1.00
H2       0.86814    0.68403    0.39654   1.00
H2       0.83809    0.65230    0.36910   1.00
H2       0.88918    0.64514    0.37083   1.00
H2       0.89238    0.57604    0.40392   1.00
H2       0.84937    0.56224    0.42822   1.00
H2       0.84725    0.58039    0.38036   1.00
H2       0.80506    0.61323    0.56328   1.00
H2       0.77921    0.64655    0.53468   1.00
H2       0.77363    0.59582    0.52648   1.00
H2       0.87580    0.57651    0.49138   1.00
H2       0.85395    0.56963    0.53692   1.00
H2       0.82839    0.55563    0.49450   1.00
H2       0.77170    0.56726    0.44486   1.00
H2       0.73564    0.58565    0.41292   1.00
H2       0.78337    0.58213    0.39668   1.00
H2       0.72808    0.61901    0.48098   1.00
H2       0.74101    0.66832    0.47932   1.00
H2       0.71295    0.64835    0.44172   1.00
H2       0.82745    0.79297    0.48312   1.00
H2       0.86313    0.82965    0.48191   1.00
H2       0.87580    0.78165    0.46952   1.00
H2       0.83917    0.84641    0.54875   1.00
H2       0.80878    0.80565    0.55426   1.00
H2       0.84573    0.81551    0.58878   1.00
H2       0.88661    0.70058    0.64798   1.00
H2       0.86676    0.67963    0.60565   1.00
H2       0.91782    0.68604    0.60965   1.00
H2       0.91760    0.79646    0.60584   1.00
H2       0.91621    0.76721    0.64788   1.00
H2       0.94761    0.75444    0.60915   1.00
H2       0.90553    0.72073    0.46344   1.00
H2       0.94739    0.69337    0.47619   1.00
H2       0.90117    0.67811    0.49166   1.00
H2       0.98310    0.74487    0.50956   1.00
H2       0.94736    0.77842    0.49378   1.00
H2       0.96130    0.77638    0.54343   1.00
C4       0.24884    0.24719    1.02084   1.00
C4       0.24855    0.24785    0.97912   1.00
C3       0.22057    0.22724    1.04364   1.00
C3       0.21806    0.23169    0.95616   1.00
C3       0.27859    0.26802    1.04123   1.00
C3       0.28038    0.26549    0.95886   1.00
C2       0.25034    0.24885    1.10512   1.00
C2       0.24966    0.25115    0.89488   1.00
C3       0.22114    0.22822    1.08462   1.00
C3       0.21876    0.23296    0.91519   1.00
C3       0.27909    0.26804    1.08258   1.00
C3       0.27971    0.26794    0.91762   1.00
H1       0.19881    0.21131    1.03115   1.00
H1       0.19434    0.21874    0.96852   1.00
C5       0.30775    0.28856    1.02020   1.00
C5       0.31255    0.28089    0.97980   1.00
H1       0.19977    0.21348    1.09955   1.00
H1       0.19608    0.22050    0.90010   1.00
H1       0.30123    0.28221    1.09680   1.00
H1       0.30147    0.28284    0.90368   1.00
O3       0.33234    0.31377    1.03961   1.00
O3       0.34679    0.29094    0.96099   1.00
Si1      0.32138    0.36006    1.04247   1.00
Si1      0.37929    0.25712    0.95279   1.00
C6       0.35869    0.37343    1.07538   1.00
C6       0.32925    0.38064    0.99598   1.00
C6       0.27472    0.36875    1.06253   1.00
C6       0.36831    0.20874    0.96693   1.00
C6       0.38552    0.25905    0.90198   1.00
C6       0.42314    0.27252    0.97477   1.00
C6       0.36370    0.34638    1.11194   1.00
H2       0.38496    0.36895    1.05791   1.00
C6       0.36177    0.41621    1.09147   1.00
H2       0.35085    0.36081    0.98358   1.00
C6       0.29453    0.38124    0.96634   1.00
C6       0.34788    0.42226    0.99336   1.00
H2       0.27490    0.34996    1.08831   1.00
C6       0.26599    0.41099    1.07772   1.00
C6       0.23730    0.35752    1.03849   1.00
C6       0.35804    0.20097    1.01071   1.00
C6       0.33866    0.18421    0.94225   1.00
H2       0.39606    0.19386    0.96212   1.00
H2       0.35817    0.24747    0.89051   1.00
C6       0.38959    0.30078    0.88378   1.00
C6       0.41886    0.23366    0.88393   1.00
H2       0.43554    0.29300    0.95375   1.00
C6       0.41911    0.29627    1.01336   1.00
C6       0.45552    0.24119    0.98244   1.00
H2       0.36814    0.31597    1.10346   1.00
H2       0.33809    0.34770    1.13090   1.00
H2       0.38918    0.35486    1.12917   1.00
H2       0.39238    0.42396    1.09608   1.00
H2       0.34937    0.43776    1.07178   1.00
H2       0.34725    0.41961    1.11964   1.00
H2       0.30506    0.38677    0.93672   1.00
H2       0.27921    0.35345    0.96532   1.00
H2       0.27363    0.40418    0.97352   1.00
H2       0.37580    0.42349    1.00862   1.00
H2       0.35395    0.43037    0.96308   1.00
H2       0.32839    0.44437    1.00550   1.00
H2       0.27170    0.43274    1.05514   1.00
H2       0.23564    0.41435    1.08708   1.00
H2       0.28337    0.41787    1.10332   1.00
H2       0.22808    0.38099    1.01902   1.00
H2       0.24101    0.33168    1.02068   1.00
H2       0.21295    0.35165    1.05828   1.00
H2       0.32745    0.20703    1.01688   1.00
H2       0.36313    0.17035    1.01809   1.00
H2       0.37580    0.21835    1.03048   1.00
H2       0.33917    0.15359    0.95125   1.00
H2       0.30878    0.19435    0.94574   1.00
H2       0.34573    0.18449    0.91122   1.00
H2       0.38661    0.29942    0.85202   1.00
H2       0.36676    0.32037    0.89435   1.00
H2       0.41782    0.31396    0.89035   1.00
H2       0.41760    0.20354    0.89416   1.00
H2       0.41621    0.23279    0.85212   1.00
H2       0.44761    0.24556    0.89085   1.00
H2       0.40553    0.27927    1.03656   1.00
H2       0.44739    0.30663    1.02381   1.00
H2       0.40117    0.32189    1.00834   1.00
H2       0.48310    0.25513    0.99044   1.00
H2       0.44736    0.22158    1.00622   1.00
H2       0.46130    0.22362    0.95657   1.00
C4       0.24719    0.52084    0.74884   1.00
C4       0.24785    0.47912    0.74855   1.00
C3       0.22724    0.54364    0.72057   1.00
C3       0.23169    0.45616    0.71806   1.00
C3       0.26802    0.54123    0.77859   1.00
C3       0.26549    0.45886    0.78038   1.00
C2       0.24885    0.60512    0.75034   1.00
C2       0.25115    0.39488    0.74966   1.00
C3       0.22822    0.58462    0.72114   1.00
C3       0.23296    0.41519    0.71876   1.00
C3       0.26804    0.58258    0.77909   1.00
C3       0.26794    0.41762    0.77971   1.00
H1       0.21131    0.53115    0.69881   1.00
H1       0.21874    0.46852    0.69434   1.00
C5       0.28856    0.52020    0.80775   1.00
C5       0.28089    0.47980    0.81255   1.00
H1       0.21348    0.59955    0.69977   1.00
H1       0.22050    0.40010    0.69608   1.00
H1       0.28221    0.59680    0.80123   1.00
H1       0.28284    0.40368    0.80147   1.00
O3       0.31377    0.53961    0.83234   1.00
O3       0.29094    0.46099    0.84679   1.00
Si1      0.36006    0.54247    0.82138   1.00
Si1      0.25712    0.45279    0.87929   1.00
C6       0.37343    0.57538    0.85869   1.00
C6       0.38064    0.49598    0.82925   1.00
C6       0.36875    0.56253    0.77472   1.00
C6       0.20874    0.46693    0.86831   1.00
C6       0.25905    0.40198    0.88552   1.00
C6       0.27252    0.47477    0.92314   1.00
C6       0.34638    0.61194    0.86370   1.00
H2       0.36895    0.55791    0.88496   1.00
C6       0.41621    0.59147    0.86177   1.00
H2       0.36081    0.48358    0.85085   1.00
C6       0.38124    0.46634    0.79453   1.00
C6       0.42226    0.49336    0.84788   1.00
H2       0.34996    0.58831    0.77490   1.00
C6       0.41099    0.57772    0.76599   1.00
C6       0.35752    0.53849    0.73730   1.00
C6       0.20097    0.51071    0.85804   1.00
C6       0.18421    0.44225    0.83866   1.00
H2       0.19386    0.46212    0.89606   1.00
H2       0.24747    0.39051    0.85817   1.00
C6       0.30078    0.38378    0.88959   1.00
C6       0.23366    0.38393    0.91886   1.00
H2       0.29300    0.45375    0.93554   1.00
C6       0.29627    0.51336    0.91911   1.00
C6       0.24119    0.48244    0.95552   1.00
H2       0.31597    0.60346    0.86814   1.00
H2       0.34770    0.63090    0.83809   1.00
H2       0.35486    0.62917    0.88918   1.00
H2       0.42396    0.59608    0.89238   1.00
H2       0.43776    0.57178    0.84937   1.00
H2       0.41961    0.61964    0.84725   1.00
H2       0.38677    0.43672    0.80506   1.00
H2       0.35345    0.46532    0.77921   1.00
H2       0.40418    0.47352    0.77363   1.00
H2       0.42349    0.50862    0.87580   1.00
H2       0.43037    0.46308    0.85395   1.00
H2       0.44437    0.50550    0.82839   1.00
H2       0.43274    0.55514    0.77170   1.00
H2       0.41435    0.58708    0.73564   1.00
H2       0.41787    0.60332    0.78337   1.00
H2       0.38099    0.51902    0.72808   1.00
H2       0.33168    0.52068    0.74101   1.00
H2       0.35165    0.55828    0.71295   1.00
H2       0.20703    0.51688    0.82745   1.00
H2       0.17035    0.51809    0.86313   1.00
H2       0.21835    0.53048    0.87580   1.00
H2       0.15359    0.45125    0.83917   1.00
H2       0.19435    0.44574    0.80878   1.00
H2       0.18449    0.41122    0.84573   1.00
H2       0.29942    0.35202    0.88661   1.00
H2       0.32037    0.39435    0.86676   1.00
H2       0.31396    0.39035    0.91782   1.00
H2       0.20354    0.39416    0.91760   1.00
H2       0.23279    0.35212    0.91621   1.00
H2       0.24556    0.39085    0.94761   1.00
H2       0.27927    0.53656    0.90553   1.00
H2       0.30663    0.52381    0.94739   1.00
H2       0.32189    0.50834    0.90117   1.00
H2       0.25513    0.49044    0.98310   1.00
H2       0.22158    0.50622    0.94736   1.00
H2       0.22362    0.45657    0.96130   1.00
C4       -0.02084   0.24884    0.75281   1.00
C4       0.02088    0.24855    0.75215   1.00
C3       -0.04364   0.22057    0.77276   1.00
C3       0.04384    0.21806    0.76831   1.00
C3       -0.04123   0.27859    0.73198   1.00
C3       0.04114    0.28038    0.73451   1.00
C2       -0.10512   0.25034    0.75115   1.00
C2       0.10512    0.24966    0.74885   1.00
C3       -0.08462   0.22114    0.77178   1.00
C3       0.08481    0.21876    0.76704   1.00
C3       -0.08258   0.27909    0.73196   1.00
C3       0.08238    0.27971    0.73206   1.00
H1       -0.03115   0.19881    0.78869   1.00
H1       0.03148    0.19434    0.78126   1.00
C5       -0.02020   0.30775    0.71144   1.00
C5       0.02020    0.31255    0.71911   1.00
H1       -0.09955   0.19977    0.78652   1.00
H1       0.09990    0.19608    0.77950   1.00
H1       -0.09680   0.30123    0.71779   1.00
H1       0.09632    0.30147    0.71716   1.00
O3       -0.03961   0.33234    0.68623   1.00
O3       0.03901    0.34679    0.70906   1.00
Si1      -0.04247   0.32138    0.63994   1.00
Si1      0.04721    0.37929    0.74288   1.00
C6       -0.07538   0.35869    0.62657   1.00
C6       0.00402    0.32925    0.61936   1.00
C6       -0.06253   0.27472    0.63125   1.00
C6       0.03307    0.36831    0.79126   1.00
C6       0.09802    0.38552    0.74095   1.00
C6       0.02523    0.42314    0.72748   1.00
C6       -0.11194   0.36370    0.65362   1.00
H2       -0.05791   0.38496    0.63105   1.00
C6       -0.09147   0.36177    0.58379   1.00
H2       0.01642    0.35085    0.63919   1.00
C6       0.03366    0.29453    0.61876   1.00
C6       0.00664    0.34788    0.57774   1.00
H2       -0.08831   0.27490    0.65004   1.00
C6       -0.07772   0.26599    0.58901   1.00
C6       -0.03849   0.23730    0.64248   1.00
C6       -0.01071   0.35804    0.79903   1.00
C6       0.05775    0.33866    0.81579   1.00
H2       0.03788    0.39606    0.80614   1.00
H2       0.10949    0.35817    0.75253   1.00
C6       0.11622    0.38959    0.69922   1.00
C6       0.11607    0.41886    0.76634   1.00
H2       0.04625    0.43554    0.70700   1.00
C6       -0.01336   0.41911    0.70373   1.00
C6       0.01756    0.45552    0.75881   1.00
H2       -0.10346   0.36814    0.68403   1.00
H2       -0.13090   0.33809    0.65230   1.00
H2       -0.12917   0.38918    0.64514   1.00
H2       -0.09608   0.39238    0.57604   1.00
H2       -0.07178   0.34937    0.56224   1.00
H2       -0.11964   0.34725    0.58039   1.00
H2       0.06328    0.30506    0.61323   1.00
H2       0.03468    0.27921    0.64655   1.00
H2       0.02648    0.27363    0.59582   1.00
H2       -0.00862   0.37580    0.57651   1.00
H2       0.03692    0.35395    0.56963   1.00
H2       -0.00550   0.32839    0.55563   1.00
H2       -0.05514   0.27170    0.56726   1.00
H2       -0.08708   0.23564    0.58565   1.00
H2       -0.10332   0.28337    0.58213   1.00
H2       -0.01902   0.22808    0.61901   1.00
H2       -0.02068   0.24101    0.66832   1.00
H2       -0.05828   0.21295    0.64835   1.00
H2       -0.01688   0.32745    0.79297   1.00
H2       -0.01809   0.36313    0.82965   1.00
H2       -0.03048   0.37580    0.78165   1.00
H2       0.04875    0.33917    0.84641   1.00
H2       0.05426    0.30878    0.80565   1.00
H2       0.08878    0.34573    0.81551   1.00
H2       0.14798    0.38661    0.70058   1.00
H2       0.10565    0.36676    0.67963   1.00
H2       0.10965    0.41782    0.68604   1.00
H2       0.10584    0.41760    0.79646   1.00
H2       0.14788    0.41621    0.76721   1.00
H2       0.10915    0.44761    0.75444   1.00
H2       -0.03656   0.40553    0.72073   1.00
H2       -0.02381   0.44739    0.69337   1.00
H2       -0.00834   0.40117    0.67811   1.00
H2       0.00956    0.48310    0.74487   1.00
H2       -0.00622   0.44736    0.77842   1.00
H2       0.04343    0.46130    0.77638   1.00
C4       0.52084    0.24884    0.74719   1.00
C4       0.47912    0.24855    0.74785   1.00
C3       0.54364    0.22057    0.72724   1.00
C3       0.45616    0.21806    0.73169   1.00
C3       0.54123    0.27859    0.76802   1.00
C3       0.45886    0.28038    0.76549   1.00
C2       0.60512    0.25034    0.74885   1.00
C2       0.39488    0.24966    0.75115   1.00
C3       0.58462    0.22114    0.72822   1.00
C3       0.41519    0.21876    0.73296   1.00
C3       0.58258    0.27909    0.76804   1.00
C3       0.41762    0.27971    0.76794   1.00
H1       0.53115    0.19881    0.71131   1.00
H1       0.46852    0.19434    0.71874   1.00
C5       0.52020    0.30775    0.78856   1.00
C5       0.47980    0.31255    0.78089   1.00
H1       0.59955    0.19977    0.71348   1.00
H1       0.40010    0.19608    0.72050   1.00
H1       0.59680    0.30123    0.78221   1.00
H1       0.40368    0.30147    0.78284   1.00
O3       0.53961    0.33234    0.81377   1.00
O3       0.46099    0.34679    0.79094   1.00
Si1      0.54247    0.32138    0.86006   1.00
Si1      0.45279    0.37929    0.75712   1.00
C6       0.57538    0.35869    0.87343   1.00
C6       0.49598    0.32925    0.88064   1.00
C6       0.56253    0.27472    0.86875   1.00
C6       0.46693    0.36831    0.70874   1.00
C6       0.40198    0.38552    0.75905   1.00
C6       0.47477    0.42314    0.77252   1.00
C6       0.61194    0.36370    0.84638   1.00
H2       0.55791    0.38496    0.86895   1.00
C6       0.59147    0.36177    0.91621   1.00
H2       0.48358    0.35085    0.86081   1.00
C6       0.46634    0.29453    0.88124   1.00
C6       0.49336    0.34788    0.92226   1.00
H2       0.58831    0.27490    0.84996   1.00
C6       0.57772    0.26599    0.91099   1.00
C6       0.53849    0.23730    0.85752   1.00
C6       0.51071    0.35804    0.70097   1.00
C6       0.44225    0.33866    0.68421   1.00
H2       0.46212    0.39606    0.69386   1.00
H2       0.39051    0.35817    0.74747   1.00
C6       0.38378    0.38959    0.80078   1.00
C6       0.38393    0.41886    0.73366   1.00
H2       0.45375    0.43554    0.79300   1.00
C6       0.51336    0.41911    0.79627   1.00
C6       0.48244    0.45552    0.74119   1.00
H2       0.60346    0.36814    0.81597   1.00
H2       0.63090    0.33809    0.84770   1.00
H2       0.62917    0.38918    0.85486   1.00
H2       0.59608    0.39238    0.92396   1.00
H2       0.57178    0.34937    0.93776   1.00
H2       0.61964    0.34725    0.91961   1.00
H2       0.43672    0.30506    0.88677   1.00
H2       0.46532    0.27921    0.85345   1.00
H2       0.47352    0.27363    0.90418   1.00
H2       0.50862    0.37580    0.92349   1.00
H2       0.46308    0.35395    0.93037   1.00
H2       0.50550    0.32839    0.94437   1.00
H2       0.55514    0.27170    0.93274   1.00
H2       0.58708    0.23564    0.91435   1.00
H2       0.60332    0.28337    0.91787   1.00
H2       0.51902    0.22808    0.88099   1.00
H2       0.52068    0.24101    0.83168   1.00
H2       0.55828    0.21295    0.85165   1.00
H2       0.51688    0.32745    0.70703   1.00
H2       0.51809    0.36313    0.67035   1.00
H2       0.53048    0.37580    0.71835   1.00
H2       0.45125    0.33917    0.65359   1.00
H2       0.44574    0.30878    0.69435   1.00
H2       0.41122    0.34573    0.68449   1.00
H2       0.35202    0.38661    0.79942   1.00
H2       0.39435    0.36676    0.82037   1.00
H2       0.39035    0.41782    0.81396   1.00
H2       0.39416    0.41760    0.70354   1.00
H2       0.35212    0.41621    0.73279   1.00
H2       0.39085    0.44761    0.74556   1.00
H2       0.53656    0.40553    0.77927   1.00
H2       0.52381    0.44739    0.80663   1.00
H2       0.50834    0.40117    0.82189   1.00
H2       0.49044    0.48310    0.75513   1.00
H2       0.50622    0.44736    0.72158   1.00
H2       0.45657    0.46130    0.72362   1.00
C4       0.25281    -0.02084   0.74884   1.00
C4       0.25215    0.02088    0.74855   1.00
C3       0.27276    -0.04364   0.72057   1.00
C3       0.26831    0.04384    0.71806   1.00
C3       0.23198    -0.04123   0.77859   1.00
C3       0.23451    0.04114    0.78038   1.00
C2       0.25115    -0.10512   0.75034   1.00
C2       0.24885    0.10512    0.74966   1.00
C3       0.27178    -0.08462   0.72114   1.00
C3       0.26704    0.08481    0.71876   1.00
C3       0.23196    -0.08258   0.77909   1.00
C3       0.23206    0.08238    0.77971   1.00
H1       0.28869    -0.03115   0.69881   1.00
H1       0.28126    0.03148    0.69434   1.00
C5       0.21144    -0.02020   0.80775   1.00
C5       0.21911    0.02020    0.81255   1.00
H1       0.28652    -0.09955   0.69977   1.00
H1       0.27950    0.09990    0.69608   1.00
H1       0.21779    -0.09680   0.80123   1.00
H1       0.21716    0.09632    0.80147   1.00
O3       0.18623    -0.03961   0.83234   1.00
O3       0.20906    0.03901    0.84679   1.00
Si1      0.13994    -0.04247   0.82138   1.00
Si1      0.24288    0.04721    0.87929   1.00
C6       0.12657    -0.07538   0.85869   1.00
C6       0.11936    0.00402    0.82925   1.00
C6       0.13125    -0.06253   0.77472   1.00
C6       0.29126    0.03307    0.86831   1.00
C6       0.24095    0.09802    0.88552   1.00
C6       0.22748    0.02523    0.92314   1.00
C6       0.15362    -0.11194   0.86370   1.00
H2       0.13105    -0.05791   0.88496   1.00
C6       0.08379    -0.09147   0.86177   1.00
H2       0.13919    0.01642    0.85085   1.00
C6       0.11876    0.03366    0.79453   1.00
C6       0.07774    0.00664    0.84788   1.00
H2       0.15004    -0.08831   0.77490   1.00
C6       0.08901    -0.07772   0.76599   1.00
C6       0.14248    -0.03849   0.73730   1.00
C6       0.29903    -0.01071   0.85804   1.00
C6       0.31579    0.05775    0.83866   1.00
H2       0.30614    0.03788    0.89606   1.00
H2       0.25253    0.10949    0.85817   1.00
C6       0.19922    0.11622    0.88959   1.00
C6       0.26634    0.11607    0.91886   1.00
H2       0.20700    0.04625    0.93554   1.00
C6       0.20373    -0.01336   0.91911   1.00
C6       0.25881    0.01756    0.95552   1.00
H2       0.18403    -0.10346   0.86814   1.00
H2       0.15230    -0.13090   0.83809   1.00
H2       0.14514    -0.12917   0.88918   1.00
H2       0.07604    -0.09608   0.89238   1.00
H2       0.06224    -0.07178   0.84937   1.00
H2       0.08039    -0.11964   0.84725   1.00
H2       0.11323    0.06328    0.80506   1.00
H2       0.14655    0.03468    0.77921   1.00
H2       0.09582    0.02648    0.77363   1.00
H2       0.07651    -0.00862   0.87580   1.00
H2       0.06963    0.03692    0.85395   1.00
H2       0.05563    -0.00550   0.82839   1.00
H2       0.06726    -0.05514   0.77170   1.00
H2       0.08565    -0.08708   0.73564   1.00
H2       0.08213    -0.10332   0.78337   1.00
H2       0.11901    -0.01902   0.72808   1.00
H2       0.16832    -0.02068   0.74101   1.00
H2       0.14835    -0.05828   0.71295   1.00
H2       0.29297    -0.01688   0.82745   1.00
H2       0.32965    -0.01809   0.86313   1.00
H2       0.28165    -0.03048   0.87580   1.00
H2       0.34641    0.04875    0.83917   1.00
H2       0.30565    0.05426    0.80878   1.00
H2       0.31551    0.08878    0.84573   1.00
H2       0.20058    0.14798    0.88661   1.00
H2       0.17963    0.10565    0.86676   1.00
H2       0.18604    0.10965    0.91782   1.00
H2       0.29646    0.10584    0.91760   1.00
H2       0.26721    0.14788    0.91621   1.00
H2       0.25444    0.10915    0.94761   1.00
H2       0.22073    -0.03656   0.90553   1.00
H2       0.19337    -0.02381   0.94739   1.00
H2       0.17811    -0.00834   0.90117   1.00
H2       0.24487    0.00956    0.98310   1.00
H2       0.27842    -0.00622   0.94736   1.00
H2       0.27638    0.04343    0.96130   1.00
C4       0.24884    0.25281    0.47916   1.00
C4       0.24855    0.25215    0.52088   1.00
C3       0.22057    0.27276    0.45636   1.00
C3       0.21806    0.26831    0.54384   1.00
C3       0.27859    0.23198    0.45877   1.00
C3       0.28038    0.23451    0.54114   1.00
C2       0.25034    0.25115    0.39488   1.00
C2       0.24966    0.24885    0.60512   1.00
C3       0.22114    0.27178    0.41538   1.00
C3       0.21876    0.26704    0.58481   1.00
C3       0.27909    0.23196    0.41742   1.00
C3       0.27971    0.23206    0.58238   1.00
H1       0.19881    0.28869    0.46885   1.00
H1       0.19434    0.28126    0.53148   1.00
C5       0.30775    0.21144    0.47980   1.00
C5       0.31255    0.21911    0.52020   1.00
H1       0.19977    0.28652    0.40045   1.00
H1       0.19608    0.27950    0.59990   1.00
H1       0.30123    0.21779    0.40320   1.00
H1       0.30147    0.21716    0.59632   1.00
O3       0.33234    0.18623    0.46039   1.00
O3       0.34679    0.20906    0.53901   1.00
Si1      0.32138    0.13994    0.45753   1.00
Si1      0.37929    0.24288    0.54721   1.00
C6       0.35869    0.12657    0.42462   1.00
C6       0.32925    0.11936    0.50402   1.00
C6       0.27472    0.13125    0.43747   1.00
C6       0.36831    0.29126    0.53307   1.00
C6       0.38552    0.24095    0.59802   1.00
C6       0.42314    0.22748    0.52523   1.00
C6       0.36370    0.15362    0.38806   1.00
H2       0.38496    0.13105    0.44209   1.00
C6       0.36177    0.08379    0.40853   1.00
H2       0.35085    0.13919    0.51642   1.00
C6       0.29453    0.11876    0.53366   1.00
C6       0.34788    0.07774    0.50664   1.00
H2       0.27490    0.15004    0.41169   1.00
C6       0.26599    0.08901    0.42228   1.00
C6       0.23730    0.14248    0.46151   1.00
C6       0.35804    0.29903    0.48929   1.00
C6       0.33866    0.31579    0.55775   1.00
H2       0.39606    0.30614    0.53788   1.00
H2       0.35817    0.25253    0.60949   1.00
C6       0.38959    0.19922    0.61622   1.00
C6       0.41886    0.26634    0.61607   1.00
H2       0.43554    0.20700    0.54625   1.00
C6       0.41911    0.20373    0.48664   1.00
C6       0.45552    0.25881    0.51756   1.00
H2       0.36814    0.18403    0.39654   1.00
H2       0.33809    0.15230    0.36910   1.00
H2       0.38918    0.14514    0.37083   1.00
H2       0.39238    0.07604    0.40392   1.00
H2       0.34937    0.06224    0.42822   1.00
H2       0.34725    0.08039    0.38036   1.00
H2       0.30506    0.11323    0.56328   1.00
H2       0.27921    0.14655    0.53468   1.00
H2       0.27363    0.09582    0.52648   1.00
H2       0.37580    0.07651    0.49138   1.00
H2       0.35395    0.06963    0.53692   1.00
H2       0.32839    0.05563    0.49450   1.00
H2       0.27170    0.06726    0.44486   1.00
H2       0.23564    0.08565    0.41292   1.00
H2       0.28337    0.08213    0.39668   1.00
H2       0.22808    0.11901    0.48098   1.00
H2       0.24101    0.16832    0.47932   1.00
H2       0.21295    0.14835    0.44172   1.00
H2       0.32745    0.29297    0.48312   1.00
H2       0.36313    0.32965    0.48191   1.00
H2       0.37580    0.28165    0.46952   1.00
H2       0.33917    0.34641    0.54875   1.00
H2       0.30878    0.30565    0.55426   1.00
H2       0.34573    0.31551    0.58878   1.00
H2       0.38661    0.20058    0.64798   1.00
H2       0.36676    0.17963    0.60565   1.00
H2       0.41782    0.18604    0.60965   1.00
H2       0.41760    0.29646    0.60584   1.00
H2       0.41621    0.26721    0.64788   1.00
H2       0.44761    0.25444    0.60915   1.00
H2       0.40553    0.22073    0.46344   1.00
H2       0.44739    0.19337    0.47619   1.00
H2       0.40117    0.17811    0.49166   1.00
H2       0.48310    0.24487    0.50956   1.00
H2       0.44736    0.27842    0.49378   1.00
H2       0.46130    0.27638    0.54343   1.00
C4       0.24884    0.74719    0.52084   1.00
C4       0.24855    0.74785    0.47912   1.00
C3       0.22057    0.72724    0.54364   1.00
C3       0.21806    0.73169    0.45616   1.00
C3       0.27859    0.76802    0.54123   1.00
C3       0.28038    0.76549    0.45886   1.00
C2       0.25034    0.74885    0.60512   1.00
C2       0.24966    0.75115    0.39488   1.00
C3       0.22114    0.72822    0.58462   1.00
C3       0.21876    0.73296    0.41519   1.00
C3       0.27909    0.76804    0.58258   1.00
C3       0.27971    0.76794    0.41762   1.00
H1       0.19881    0.71131    0.53115   1.00
H1       0.19434    0.71874    0.46852   1.00
C5       0.30775    0.78856    0.52020   1.00
C5       0.31255    0.78089    0.47980   1.00
H1       0.19977    0.71348    0.59955   1.00
H1       0.19608    0.72050    0.40010   1.00
H1       0.30123    0.78221    0.59680   1.00
H1       0.30147    0.78284    0.40368   1.00
O3       0.33234    0.81377    0.53961   1.00
O3       0.34679    0.79094    0.46099   1.00
Si1      0.32138    0.86006    0.54247   1.00
Si1      0.37929    0.75712    0.45279   1.00
C6       0.35869    0.87343    0.57538   1.00
C6       0.32925    0.88064    0.49598   1.00
C6       0.27472    0.86875    0.56253   1.00
C6       0.36831    0.70874    0.46693   1.00
C6       0.38552    0.75905    0.40198   1.00
C6       0.42314    0.77252    0.47477   1.00
C6       0.36370    0.84638    0.61194   1.00
H2       0.38496    0.86895    0.55791   1.00
C6       0.36177    0.91621    0.59147   1.00
H2       0.35085    0.86081    0.48358   1.00
C6       0.29453    0.88124    0.46634   1.00
C6       0.34788    0.92226    0.49336   1.00
H2       0.27490    0.84996    0.58831   1.00
C6       0.26599    0.91099    0.57772   1.00
C6       0.23730    0.85752    0.53849   1.00
C6       0.35804    0.70097    0.51071   1.00
C6       0.33866    0.68421    0.44225   1.00
H2       0.39606    0.69386    0.46212   1.00
H2       0.35817    0.74747    0.39051   1.00
C6       0.38959    0.80078    0.38378   1.00
C6       0.41886    0.73366    0.38393   1.00
H2       0.43554    0.79300    0.45375   1.00
C6       0.41911    0.79627    0.51336   1.00
C6       0.45552    0.74119    0.48244   1.00
H2       0.36814    0.81597    0.60346   1.00
H2       0.33809    0.84770    0.63090   1.00
H2       0.38918    0.85486    0.62917   1.00
H2       0.39238    0.92396    0.59608   1.00
H2       0.34937    0.93776    0.57178   1.00
H2       0.34725    0.91961    0.61964   1.00
H2       0.30506    0.88677    0.43672   1.00
H2       0.27921    0.85345    0.46532   1.00
H2       0.27363    0.90418    0.47352   1.00
H2       0.37580    0.92349    0.50862   1.00
H2       0.35395    0.93037    0.46308   1.00
H2       0.32839    0.94437    0.50550   1.00
H2       0.27170    0.93274    0.55514   1.00
H2       0.23564    0.91435    0.58708   1.00
H2       0.28337    0.91787    0.60332   1.00
H2       0.22808    0.88099    0.51902   1.00
H2       0.24101    0.83168    0.52068   1.00
H2       0.21295    0.85165    0.55828   1.00
H2       0.32745    0.70703    0.51688   1.00
H2       0.36313    0.67035    0.51809   1.00
H2       0.37580    0.71835    0.53048   1.00
H2       0.33917    0.65359    0.45125   1.00
H2       0.30878    0.69435    0.44574   1.00
H2       0.34573    0.68449    0.41122   1.00
H2       0.38661    0.79942    0.35202   1.00
H2       0.36676    0.82037    0.39435   1.00
H2       0.41782    0.81396    0.39035   1.00
H2       0.41760    0.70354    0.39416   1.00
H2       0.41621    0.73279    0.35212   1.00
H2       0.44761    0.74556    0.39085   1.00
H2       0.40553    0.77927    0.53656   1.00
H2       0.44739    0.80663    0.52381   1.00
H2       0.40117    0.82189    0.50834   1.00
H2       0.48310    0.75513    0.49044   1.00
H2       0.44736    0.72158    0.50622   1.00
H2       0.46130    0.72362    0.45657   1.00
C4       0.24719    1.02084    0.24884   1.00
C4       0.24785    0.97912    0.24855   1.00
C3       0.22724    1.04364    0.22057   1.00
C3       0.23169    0.95616    0.21806   1.00
C3       0.26802    1.04123    0.27859   1.00
C3       0.26549    0.95886    0.28038   1.00
C2       0.24885    1.10512    0.25034   1.00
C2       0.25115    0.89488    0.24966   1.00
C3       0.22822    1.08462    0.22114   1.00
C3       0.23296    0.91519    0.21876   1.00
C3       0.26804    1.08258    0.27909   1.00
C3       0.26794    0.91762    0.27971   1.00
H1       0.21131    1.03115    0.19881   1.00
H1       0.21874    0.96852    0.19434   1.00
C5       0.28856    1.02020    0.30775   1.00
C5       0.28089    0.97980    0.31255   1.00
H1       0.21348    1.09955    0.19977   1.00
H1       0.22050    0.90010    0.19608   1.00
H1       0.28221    1.09680    0.30123   1.00
H1       0.28284    0.90368    0.30147   1.00
O3       0.31377    1.03961    0.33234   1.00
O3       0.29094    0.96099    0.34679   1.00
Si1      0.36006    1.04247    0.32138   1.00
Si1      0.25712    0.95279    0.37929   1.00
C6       0.37343    1.07538    0.35869   1.00
C6       0.38064    0.99598    0.32925   1.00
C6       0.36875    1.06253    0.27472   1.00
C6       0.20874    0.96693    0.36831   1.00
C6       0.25905    0.90198    0.38552   1.00
C6       0.27252    0.97477    0.42314   1.00
C6       0.34638    1.11194    0.36370   1.00
H2       0.36895    1.05791    0.38496   1.00
C6       0.41621    1.09147    0.36177   1.00
H2       0.36081    0.98358    0.35085   1.00
C6       0.38124    0.96634    0.29453   1.00
C6       0.42226    0.99336    0.34788   1.00
H2       0.34996    1.08831    0.27490   1.00
C6       0.41099    1.07772    0.26599   1.00
C6       0.35752    1.03849    0.23730   1.00
C6       0.20097    1.01071    0.35804   1.00
C6       0.18421    0.94225    0.33866   1.00
H2       0.19386    0.96212    0.39606   1.00
H2       0.24747    0.89051    0.35817   1.00
C6       0.30078    0.88378    0.38959   1.00
C6       0.23366    0.88393    0.41886   1.00
H2       0.29300    0.95375    0.43554   1.00
C6       0.29627    1.01336    0.41911   1.00
C6       0.24119    0.98244    0.45552   1.00
H2       0.31597    1.10346    0.36814   1.00
H2       0.34770    1.13090    0.33809   1.00
H2       0.35486    1.12917    0.38918   1.00
H2       0.42396    1.09608    0.39238   1.00
H2       0.43776    1.07178    0.34937   1.00
H2       0.41961    1.11964    0.34725   1.00
H2       0.38677    0.93672    0.30506   1.00
H2       0.35345    0.96532    0.27921   1.00
H2       0.40418    0.97352    0.27363   1.00
H2       0.42349    1.00862    0.37580   1.00
H2       0.43037    0.96308    0.35395   1.00
H2       0.44437    1.00550    0.32839   1.00
H2       0.43274    1.05514    0.27170   1.00
H2       0.41435    1.08708    0.23564   1.00
H2       0.41787    1.10332    0.28337   1.00
H2       0.38099    1.01902    0.22808   1.00
H2       0.33168    1.02068    0.24101   1.00
H2       0.35165    1.05828    0.21295   1.00
H2       0.20703    1.01688    0.32745   1.00
H2       0.17035    1.01809    0.36313   1.00
H2       0.21835    1.03048    0.37580   1.00
H2       0.15359    0.95125    0.33917   1.00
H2       0.19435    0.94574    0.30878   1.00
H2       0.18449    0.91122    0.34573   1.00
H2       0.29942    0.85202    0.38661   1.00
H2       0.32037    0.89435    0.36676   1.00
H2       0.31396    0.89035    0.41782   1.00
H2       0.20354    0.89416    0.41760   1.00
H2       0.23279    0.85212    0.41621   1.00
H2       0.24556    0.89085    0.44761   1.00
H2       0.27927    1.03656    0.40553   1.00
H2       0.30663    1.02381    0.44739   1.00
H2       0.32189    1.00834    0.40117   1.00
H2       0.25513    0.99044    0.48310   1.00
H2       0.22158    1.00622    0.44736   1.00
H2       0.22362    0.95657    0.46130   1.00
C4       -0.02084   0.74884    0.25281   1.00
C4       0.02088    0.74855    0.25215   1.00
C3       -0.04364   0.72057    0.27276   1.00
C3       0.04384    0.71806    0.26831   1.00
C3       -0.04123   0.77859    0.23198   1.00
C3       0.04114    0.78038    0.23451   1.00
C2       -0.10512   0.75034    0.25115   1.00
C2       0.10512    0.74966    0.24885   1.00
C3       -0.08462   0.72114    0.27178   1.00
C3       0.08481    0.71876    0.26704   1.00
C3       -0.08258   0.77909    0.23196   1.00
C3       0.08238    0.77971    0.23206   1.00
H1       -0.03115   0.69881    0.28869   1.00
H1       0.03148    0.69434    0.28126   1.00
C5       -0.02020   0.80775    0.21144   1.00
C5       0.02020    0.81255    0.21911   1.00
H1       -0.09955   0.69977    0.28652   1.00
H1       0.09990    0.69608    0.27950   1.00
H1       -0.09680   0.80123    0.21779   1.00
H1       0.09632    0.80147    0.21716   1.00
O3       -0.03961   0.83234    0.18623   1.00
O3       0.03901    0.84679    0.20906   1.00
Si1      -0.04247   0.82138    0.13994   1.00
Si1      0.04721    0.87929    0.24288   1.00
C6       -0.07538   0.85869    0.12657   1.00
C6       0.00402    0.82925    0.11936   1.00
C6       -0.06253   0.77472    0.13125   1.00
C6       0.03307    0.86831    0.29126   1.00
C6       0.09802    0.88552    0.24095   1.00
C6       0.02523    0.92314    0.22748   1.00
C6       -0.11194   0.86370    0.15362   1.00
H2       -0.05791   0.88496    0.13105   1.00
C6       -0.09147   0.86177    0.08379   1.00
H2       0.01642    0.85085    0.13919   1.00
C6       0.03366    0.79453    0.11876   1.00
C6       0.00664    0.84788    0.07774   1.00
H2       -0.08831   0.77490    0.15004   1.00
C6       -0.07772   0.76599    0.08901   1.00
C6       -0.03849   0.73730    0.14248   1.00
C6       -0.01071   0.85804    0.29903   1.00
C6       0.05775    0.83866    0.31579   1.00
H2       0.03788    0.89606    0.30614   1.00
H2       0.10949    0.85817    0.25253   1.00
C6       0.11622    0.88959    0.19922   1.00
C6       0.11607    0.91886    0.26634   1.00
H2       0.04625    0.93554    0.20700   1.00
C6       -0.01336   0.91911    0.20373   1.00
C6       0.01756    0.95552    0.25881   1.00
H2       -0.10346   0.86814    0.18403   1.00
H2       -0.13090   0.83809    0.15230   1.00
H2       -0.12917   0.88918    0.14514   1.00
H2       -0.09608   0.89238    0.07604   1.00
H2       -0.07178   0.84937    0.06224   1.00
H2       -0.11964   0.84725    0.08039   1.00
H2       0.06328    0.80506    0.11323   1.00
H2       0.03468    0.77921    0.14655   1.00
H2       0.02648    0.77363    0.09582   1.00
H2       -0.00862   0.87580    0.07651   1.00
H2       0.03692    0.85395    0.06963   1.00
H2       -0.00550   0.82839    0.05563   1.00
H2       -0.05514   0.77170    0.06726   1.00
H2       -0.08708   0.73564    0.08565   1.00
H2       -0.10332   0.78337    0.08213   1.00
H2       -0.01902   0.72808    0.11901   1.00
H2       -0.02068   0.74101    0.16832   1.00
H2       -0.05828   0.71295    0.14835   1.00
H2       -0.01688   0.82745    0.29297   1.00
H2       -0.01809   0.86313    0.32965   1.00
H2       -0.03048   0.87580    0.28165   1.00
H2       0.04875    0.83917    0.34641   1.00
H2       0.05426    0.80878    0.30565   1.00
H2       0.08878    0.84573    0.31551   1.00
H2       0.14798    0.88661    0.20058   1.00
H2       0.10565    0.86676    0.17963   1.00
H2       0.10965    0.91782    0.18604   1.00
H2       0.10584    0.91760    0.29646   1.00
H2       0.14788    0.91621    0.26721   1.00
H2       0.10915    0.94761    0.25444   1.00
H2       -0.03656   0.90553    0.22073   1.00
H2       -0.02381   0.94739    0.19337   1.00
H2       -0.00834   0.90117    0.17811   1.00
H2       0.00956    0.98310    0.24487   1.00
H2       -0.00622   0.94736    0.27842   1.00
H2       0.04343    0.96130    0.27638   1.00
C4       0.52084    0.74884    0.24719   1.00
C4       0.47912    0.74855    0.24785   1.00
C3       0.54364    0.72057    0.22724   1.00
C3       0.45616    0.71806    0.23169   1.00
C3       0.54123    0.77859    0.26802   1.00
C3       0.45886    0.78038    0.26549   1.00
C2       0.60512    0.75034    0.24885   1.00
C2       0.39488    0.74966    0.25115   1.00
C3       0.58462    0.72114    0.22822   1.00
C3       0.41519    0.71876    0.23296   1.00
C3       0.58258    0.77909    0.26804   1.00
C3       0.41762    0.77971    0.26794   1.00
H1       0.53115    0.69881    0.21131   1.00
H1       0.46852    0.69434    0.21874   1.00
C5       0.52020    0.80775    0.28856   1.00
C5       0.47980    0.81255    0.28089   1.00
H1       0.59955    0.69977    0.21348   1.00
H1       0.40010    0.69608    0.22050   1.00
H1       0.59680    0.80123    0.28221   1.00
H1       0.40368    0.80147    0.28284   1.00
O3       0.53961    0.83234    0.31377   1.00
O3       0.46099    0.84679    0.29094   1.00
Si1      0.54247    0.82138    0.36006   1.00
Si1      0.45279    0.87929    0.25712   1.00
C6       0.57538    0.85869    0.37343   1.00
C6       0.49598    0.82925    0.38064   1.00
C6       0.56253    0.77472    0.36875   1.00
C6       0.46693    0.86831    0.20874   1.00
C6       0.40198    0.88552    0.25905   1.00
C6       0.47477    0.92314    0.27252   1.00
C6       0.61194    0.86370    0.34638   1.00
H2       0.55791    0.88496    0.36895   1.00
C6       0.59147    0.86177    0.41621   1.00
H2       0.48358    0.85085    0.36081   1.00
C6       0.46634    0.79453    0.38124   1.00
C6       0.49336    0.84788    0.42226   1.00
H2       0.58831    0.77490    0.34996   1.00
C6       0.57772    0.76599    0.41099   1.00
C6       0.53849    0.73730    0.35752   1.00
C6       0.51071    0.85804    0.20097   1.00
C6       0.44225    0.83866    0.18421   1.00
H2       0.46212    0.89606    0.19386   1.00
H2       0.39051    0.85817    0.24747   1.00
C6       0.38378    0.88959    0.30078   1.00
C6       0.38393    0.91886    0.23366   1.00
H2       0.45375    0.93554    0.29300   1.00
C6       0.51336    0.91911    0.29627   1.00
C6       0.48244    0.95552    0.24119   1.00
H2       0.60346    0.86814    0.31597   1.00
H2       0.63090    0.83809    0.34770   1.00
H2       0.62917    0.88918    0.35486   1.00
H2       0.59608    0.89238    0.42396   1.00
H2       0.57178    0.84937    0.43776   1.00
H2       0.61964    0.84725    0.41961   1.00
H2       0.43672    0.80506    0.38677   1.00
H2       0.46532    0.77921    0.35345   1.00
H2       0.47352    0.77363    0.40418   1.00
H2       0.50862    0.87580    0.42349   1.00
H2       0.46308    0.85395    0.43037   1.00
H2       0.50550    0.82839    0.44437   1.00
H2       0.55514    0.77170    0.43274   1.00
H2       0.58708    0.73564    0.41435   1.00
H2       0.60332    0.78337    0.41787   1.00
H2       0.51902    0.72808    0.38099   1.00
H2       0.52068    0.74101    0.33168   1.00
H2       0.55828    0.71295    0.35165   1.00
H2       0.51688    0.82745    0.20703   1.00
H2       0.51809    0.86313    0.17035   1.00
H2       0.53048    0.87580    0.21835   1.00
H2       0.45125    0.83917    0.15359   1.00
H2       0.44574    0.80878    0.19435   1.00
H2       0.41122    0.84573    0.18449   1.00
H2       0.35202    0.88661    0.29942   1.00
H2       0.39435    0.86676    0.32037   1.00
H2       0.39035    0.91782    0.31396   1.00
H2       0.39416    0.91760    0.20354   1.00
H2       0.35212    0.91621    0.23279   1.00
H2       0.39085    0.94761    0.24556   1.00
H2       0.53656    0.90553    0.27927   1.00
H2       0.52381    0.94739    0.30663   1.00
H2       0.50834    0.90117    0.32189   1.00
H2       0.49044    0.98310    0.25513   1.00
H2       0.50622    0.94736    0.22158   1.00
H2       0.45657    0.96130    0.22362   1.00
C4       0.25281    0.47916    0.24884   1.00
C4       0.25215    0.52088    0.24855   1.00
C3       0.27276    0.45636    0.22057   1.00
C3       0.26831    0.54384    0.21806   1.00
C3       0.23198    0.45877    0.27859   1.00
C3       0.23451    0.54114    0.28038   1.00
C2       0.25115    0.39488    0.25034   1.00
C2       0.24885    0.60512    0.24966   1.00
C3       0.27178    0.41538    0.22114   1.00
C3       0.26704    0.58481    0.21876   1.00
C3       0.23196    0.41742    0.27909   1.00
C3       0.23206    0.58238    0.27971   1.00
H1       0.28869    0.46885    0.19881   1.00
H1       0.28126    0.53148    0.19434   1.00
C5       0.21144    0.47980    0.30775   1.00
C5       0.21911    0.52020    0.31255   1.00
H1       0.28652    0.40045    0.19977   1.00
H1       0.27950    0.59990    0.19608   1.00
H1       0.21779    0.40320    0.30123   1.00
H1       0.21716    0.59632    0.30147   1.00
O3       0.18623    0.46039    0.33234   1.00
O3       0.20906    0.53901    0.34679   1.00
Si1      0.13994    0.45753    0.32138   1.00
Si1      0.24288    0.54721    0.37929   1.00
C6       0.12657    0.42462    0.35869   1.00
C6       0.11936    0.50402    0.32925   1.00
C6       0.13125    0.43747    0.27472   1.00
C6       0.29126    0.53307    0.36831   1.00
C6       0.24095    0.59802    0.38552   1.00
C6       0.22748    0.52523    0.42314   1.00
C6       0.15362    0.38806    0.36370   1.00
H2       0.13105    0.44209    0.38496   1.00
C6       0.08379    0.40853    0.36177   1.00
H2       0.13919    0.51642    0.35085   1.00
C6       0.11876    0.53366    0.29453   1.00
C6       0.07774    0.50664    0.34788   1.00
H2       0.15004    0.41169    0.27490   1.00
C6       0.08901    0.42228    0.26599   1.00
C6       0.14248    0.46151    0.23730   1.00
C6       0.29903    0.48929    0.35804   1.00
C6       0.31579    0.55775    0.33866   1.00
H2       0.30614    0.53788    0.39606   1.00
H2       0.25253    0.60949    0.35817   1.00
C6       0.19922    0.61622    0.38959   1.00
C6       0.26634    0.61607    0.41886   1.00
H2       0.20700    0.54625    0.43554   1.00
C6       0.20373    0.48664    0.41911   1.00
C6       0.25881    0.51756    0.45552   1.00
H2       0.18403    0.39654    0.36814   1.00
H2       0.15230    0.36910    0.33809   1.00
H2       0.14514    0.37083    0.38918   1.00
H2       0.07604    0.40392    0.39238   1.00
H2       0.06224    0.42822    0.34937   1.00
H2       0.08039    0.38036    0.34725   1.00
H2       0.11323    0.56328    0.30506   1.00
H2       0.14655    0.53468    0.27921   1.00
H2       0.09582    0.52648    0.27363   1.00
H2       0.07651    0.49138    0.37580   1.00
H2       0.06963    0.53692    0.35395   1.00
H2       0.05563    0.49450    0.32839   1.00
H2       0.06726    0.44486    0.27170   1.00
H2       0.08565    0.41292    0.23564   1.00
H2       0.08213    0.39668    0.28337   1.00
H2       0.11901    0.48098    0.22808   1.00
H2       0.16832    0.47932    0.24101   1.00
H2       0.14835    0.44172    0.21295   1.00
H2       0.29297    0.48312    0.32745   1.00
H2       0.32965    0.48191    0.36313   1.00
H2       0.28165    0.46952    0.37580   1.00
H2       0.34641    0.54875    0.33917   1.00
H2       0.30565    0.55426    0.30878   1.00
H2       0.31551    0.58878    0.34573   1.00
H2       0.20058    0.64798    0.38661   1.00
H2       0.17963    0.60565    0.36676   1.00
H2       0.18604    0.60965    0.41782   1.00
H2       0.29646    0.60584    0.41760   1.00
H2       0.26721    0.64788    0.41621   1.00
H2       0.25444    0.60915    0.44761   1.00
H2       0.22073    0.46344    0.40553   1.00
H2       0.19337    0.47619    0.44739   1.00
H2       0.17811    0.49166    0.40117   1.00
H2       0.24487    0.50956    0.48310   1.00
H2       0.27842    0.49378    0.44736   1.00
H2       0.27638    0.54343    0.46130   1.00
C4       0.24884    0.75281    -0.02084   1.00
C4       0.24855    0.75215    0.02088   1.00
C3       0.22057    0.77276    -0.04364   1.00
C3       0.21806    0.76831    0.04384   1.00
C3       0.27859    0.73198    -0.04123   1.00
C3       0.28038    0.73451    0.04114   1.00
C2       0.25034    0.75115    -0.10512   1.00
C2       0.24966    0.74885    0.10512   1.00
C3       0.22114    0.77178    -0.08462   1.00
C3       0.21876    0.76704    0.08481   1.00
C3       0.27909    0.73196    -0.08258   1.00
C3       0.27971    0.73206    0.08238   1.00
H1       0.19881    0.78869    -0.03115   1.00
H1       0.19434    0.78126    0.03148   1.00
C5       0.30775    0.71144    -0.02020   1.00
C5       0.31255    0.71911    0.02020   1.00
H1       0.19977    0.78652    -0.09955   1.00
H1       0.19608    0.77950    0.09990   1.00
H1       0.30123    0.71779    -0.09680   1.00
H1       0.30147    0.71716    0.09632   1.00
O3       0.33234    0.68623    -0.03961   1.00
O3       0.34679    0.70906    0.03901   1.00
Si1      0.32138    0.63994    -0.04247   1.00
Si1      0.37929    0.74288    0.04721   1.00
C6       0.35869    0.62657    -0.07538   1.00
C6       0.32925    0.61936    0.00402   1.00
C6       0.27472    0.63125    -0.06253   1.00
C6       0.36831    0.79126    0.03307   1.00
C6       0.38552    0.74095    0.09802   1.00
C6       0.42314    0.72748    0.02523   1.00
C6       0.36370    0.65362    -0.11194   1.00
H2       0.38496    0.63105    -0.05791   1.00
C6       0.36177    0.58379    -0.09147   1.00
H2       0.35085    0.63919    0.01642   1.00
C6       0.29453    0.61876    0.03366   1.00
C6       0.34788    0.57774    0.00664   1.00
H2       0.27490    0.65004    -0.08831   1.00
C6       0.26599    0.58901    -0.07772   1.00
C6       0.23730    0.64248    -0.03849   1.00
C6       0.35804    0.79903    -0.01071   1.00
C6       0.33866    0.81579    0.05775   1.00
H2       0.39606    0.80614    0.03788   1.00
H2       0.35817    0.75253    0.10949   1.00
C6       0.38959    0.69922    0.11622   1.00
C6       0.41886    0.76634    0.11607   1.00
H2       0.43554    0.70700    0.04625   1.00
C6       0.41911    0.70373    -0.01336   1.00
C6       0.45552    0.75881    0.01756   1.00
H2       0.36814    0.68403    -0.10346   1.00
H2       0.33809    0.65230    -0.13090   1.00
H2       0.38918    0.64514    -0.12917   1.00
H2       0.39238    0.57604    -0.09608   1.00
H2       0.34937    0.56224    -0.07178   1.00
H2       0.34725    0.58039    -0.11964   1.00
H2       0.30506    0.61323    0.06328   1.00
H2       0.27921    0.64655    0.03468   1.00
H2       0.27363    0.59582    0.02648   1.00
H2       0.37580    0.57651    -0.00862   1.00
H2       0.35395    0.56963    0.03692   1.00
H2       0.32839    0.55563    -0.00550   1.00
H2       0.27170    0.56726    -0.05514   1.00
H2       0.23564    0.58565    -0.08708   1.00
H2       0.28337    0.58213    -0.10332   1.00
H2       0.22808    0.61901    -0.01902   1.00
H2       0.24101    0.66832    -0.02068   1.00
H2       0.21295    0.64835    -0.05828   1.00
H2       0.32745    0.79297    -0.01688   1.00
H2       0.36313    0.82965    -0.01809   1.00
H2       0.37580    0.78165    -0.03048   1.00
H2       0.33917    0.84641    0.04875   1.00
H2       0.30878    0.80565    0.05426   1.00
H2       0.34573    0.81551    0.08878   1.00
H2       0.38661    0.70058    0.14798   1.00
H2       0.36676    0.67963    0.10565   1.00
H2       0.41782    0.68604    0.10965   1.00
H2       0.41760    0.79646    0.10584   1.00
H2       0.41621    0.76721    0.14788   1.00
H2       0.44761    0.75444    0.10915   1.00
H2       0.40553    0.72073    -0.03656   1.00
H2       0.44739    0.69337    -0.02381   1.00
H2       0.40117    0.67811    -0.00834   1.00
H2       0.48310    0.74487    0.00956   1.00
H2       0.44736    0.77842    -0.00622   1.00
H2       0.46130    0.77638    0.04343   1.00
C4       0.74884    0.24719    0.52084   1.00
C4       0.74855    0.24785    0.47912   1.00
C3       0.72057    0.22724    0.54364   1.00
C3       0.71806    0.23169    0.45616   1.00
C3       0.77859    0.26802    0.54123   1.00
C3       0.78038    0.26549    0.45886   1.00
C2       0.75034    0.24885    0.60512   1.00
C2       0.74966    0.25115    0.39488   1.00
C3       0.72114    0.22822    0.58462   1.00
C3       0.71876    0.23296    0.41519   1.00
C3       0.77909    0.26804    0.58258   1.00
C3       0.77971    0.26794    0.41762   1.00
H1       0.69881    0.21131    0.53115   1.00
H1       0.69434    0.21874    0.46852   1.00
C5       0.80775    0.28856    0.52020   1.00
C5       0.81255    0.28089    0.47980   1.00
H1       0.69977    0.21348    0.59955   1.00
H1       0.69608    0.22050    0.40010   1.00
H1       0.80123    0.28221    0.59680   1.00
H1       0.80147    0.28284    0.40368   1.00
O3       0.83234    0.31377    0.53961   1.00
O3       0.84679    0.29094    0.46099   1.00
Si1      0.82138    0.36006    0.54247   1.00
Si1      0.87929    0.25712    0.45279   1.00
C6       0.85869    0.37343    0.57538   1.00
C6       0.82925    0.38064    0.49598   1.00
C6       0.77472    0.36875    0.56253   1.00
C6       0.86831    0.20874    0.46693   1.00
C6       0.88552    0.25905    0.40198   1.00
C6       0.92314    0.27252    0.47477   1.00
C6       0.86370    0.34638    0.61194   1.00
H2       0.88496    0.36895    0.55791   1.00
C6       0.86177    0.41621    0.59147   1.00
H2       0.85085    0.36081    0.48358   1.00
C6       0.79453    0.38124    0.46634   1.00
C6       0.84788    0.42226    0.49336   1.00
H2       0.77490    0.34996    0.58831   1.00
C6       0.76599    0.41099    0.57772   1.00
C6       0.73730    0.35752    0.53849   1.00
C6       0.85804    0.20097    0.51071   1.00
C6       0.83866    0.18421    0.44225   1.00
H2       0.89606    0.19386    0.46212   1.00
H2       0.85817    0.24747    0.39051   1.00
C6       0.88959    0.30078    0.38378   1.00
C6       0.91886    0.23366    0.38393   1.00
H2       0.93554    0.29300    0.45375   1.00
C6       0.91911    0.29627    0.51336   1.00
C6       0.95552    0.24119    0.48244   1.00
H2       0.86814    0.31597    0.60346   1.00
H2       0.83809    0.34770    0.63090   1.00
H2       0.88918    0.35486    0.62917   1.00
H2       0.89238    0.42396    0.59608   1.00
H2       0.84937    0.43776    0.57178   1.00
H2       0.84725    0.41961    0.61964   1.00
H2       0.80506    0.38677    0.43672   1.00
H2       0.77921    0.35345    0.46532   1.00
H2       0.77363    0.40418    0.47352   1.00
H2       0.87580    0.42349    0.50862   1.00
H2       0.85395    0.43037    0.46308   1.00
H2       0.82839    0.44437    0.50550   1.00
H2       0.77170    0.43274    0.55514   1.00
H2       0.73564    0.41435    0.58708   1.00
H2       0.78337    0.41787    0.60332   1.00
H2       0.72808    0.38099    0.51902   1.00
H2       0.74101    0.33168    0.52068   1.00
H2       0.71295    0.35165    0.55828   1.00
H2       0.82745    0.20703    0.51688   1.00
H2       0.86313    0.17035    0.51809   1.00
H2       0.87580    0.21835    0.53048   1.00
H2       0.83917    0.15359    0.45125   1.00
H2       0.80878    0.19435    0.44574   1.00
H2       0.84573    0.18449    0.41122   1.00
H2       0.88661    0.29942    0.35202   1.00
H2       0.86676    0.32037    0.39435   1.00
H2       0.91782    0.31396    0.39035   1.00
H2       0.91760    0.20354    0.39416   1.00
H2       0.91621    0.23279    0.35212   1.00
H2       0.94761    0.24556    0.39085   1.00
H2       0.90553    0.27927    0.53656   1.00
H2       0.94739    0.30663    0.52381   1.00
H2       0.90117    0.32189    0.50834   1.00
H2       0.98310    0.25513    0.49044   1.00
H2       0.94736    0.22158    0.50622   1.00
H2       0.96130    0.22362    0.45657   1.00
C4       0.74719    0.52084    0.24884   1.00
C4       0.74785    0.47912    0.24855   1.00
C3       0.72724    0.54364    0.22057   1.00
C3       0.73169    0.45616    0.21806   1.00
C3       0.76802    0.54123    0.27859   1.00
C3       0.76549    0.45886    0.28038   1.00
C2       0.74885    0.60512    0.25034   1.00
C2       0.75115    0.39488    0.24966   1.00
C3       0.72822    0.58462    0.22114   1.00
C3       0.73296    0.41519    0.21876   1.00
C3       0.76804    0.58258    0.27909   1.00
C3       0.76794    0.41762    0.27971   1.00
H1       0.71131    0.53115    0.19881   1.00
H1       0.71874    0.46852    0.19434   1.00
C5       0.78856    0.52020    0.30775   1.00
C5       0.78089    0.47980    0.31255   1.00
H1       0.71348    0.59955    0.19977   1.00
H1       0.72050    0.40010    0.19608   1.00
H1       0.78221    0.59680    0.30123   1.00
H1       0.78284    0.40368    0.30147   1.00
O3       0.81377    0.53961    0.33234   1.00
O3       0.79094    0.46099    0.34679   1.00
Si1      0.86006    0.54247    0.32138   1.00
Si1      0.75712    0.45279    0.37929   1.00
C6       0.87343    0.57538    0.35869   1.00
C6       0.88064    0.49598    0.32925   1.00
C6       0.86875    0.56253    0.27472   1.00
C6       0.70874    0.46693    0.36831   1.00
C6       0.75905    0.40198    0.38552   1.00
C6       0.77252    0.47477    0.42314   1.00
C6       0.84638    0.61194    0.36370   1.00
H2       0.86895    0.55791    0.38496   1.00
C6       0.91621    0.59147    0.36177   1.00
H2       0.86081    0.48358    0.35085   1.00
C6       0.88124    0.46634    0.29453   1.00
C6       0.92226    0.49336    0.34788   1.00
H2       0.84996    0.58831    0.27490   1.00
C6       0.91099    0.57772    0.26599   1.00
C6       0.85752    0.53849    0.23730   1.00
C6       0.70097    0.51071    0.35804   1.00
C6       0.68421    0.44225    0.33866   1.00
H2       0.69386    0.46212    0.39606   1.00
H2       0.74747    0.39051    0.35817   1.00
C6       0.80078    0.38378    0.38959   1.00
C6       0.73366    0.38393    0.41886   1.00
H2       0.79300    0.45375    0.43554   1.00
C6       0.79627    0.51336    0.41911   1.00
C6       0.74119    0.48244    0.45552   1.00
H2       0.81597    0.60346    0.36814   1.00
H2       0.84770    0.63090    0.33809   1.00
H2       0.85486    0.62917    0.38918   1.00
H2       0.92396    0.59608    0.39238   1.00
H2       0.93776    0.57178    0.34937   1.00
H2       0.91961    0.61964    0.34725   1.00
H2       0.88677    0.43672    0.30506   1.00
H2       0.85345    0.46532    0.27921   1.00
H2       0.90418    0.47352    0.27363   1.00
H2       0.92349    0.50862    0.37580   1.00
H2       0.93037    0.46308    0.35395   1.00
H2       0.94437    0.50550    0.32839   1.00
H2       0.93274    0.55514    0.27170   1.00
H2       0.91435    0.58708    0.23564   1.00
H2       0.91787    0.60332    0.28337   1.00
H2       0.88099    0.51902    0.22808   1.00
H2       0.83168    0.52068    0.24101   1.00
H2       0.85165    0.55828    0.21295   1.00
H2       0.70703    0.51688    0.32745   1.00
H2       0.67035    0.51809    0.36313   1.00
H2       0.71835    0.53048    0.37580   1.00
H2       0.65359    0.45125    0.33917   1.00
H2       0.69435    0.44574    0.30878   1.00
H2       0.68449    0.41122    0.34573   1.00
H2       0.79942    0.35202    0.38661   1.00
H2       0.82037    0.39435    0.36676   1.00
H2       0.81396    0.39035    0.41782   1.00
H2       0.70354    0.39416    0.41760   1.00
H2       0.73279    0.35212    0.41621   1.00
H2       0.74556    0.39085    0.44761   1.00
H2       0.77927    0.53656    0.40553   1.00
H2       0.80663    0.52381    0.44739   1.00
H2       0.82189    0.50834    0.40117   1.00
H2       0.75513    0.49044    0.48310   1.00
H2       0.72158    0.50622    0.44736   1.00
H2       0.72362    0.45657    0.46130   1.00
C4       0.47916    0.24884    0.25281   1.00
C4       0.52088    0.24855    0.25215   1.00
C3       0.45636    0.22057    0.27276   1.00
C3       0.54384    0.21806    0.26831   1.00
C3       0.45877    0.27859    0.23198   1.00
C3       0.54114    0.28038    0.23451   1.00
C2       0.39488    0.25034    0.25115   1.00
C2       0.60512    0.24966    0.24885   1.00
C3       0.41538    0.22114    0.27178   1.00
C3       0.58481    0.21876    0.26704   1.00
C3       0.41742    0.27909    0.23196   1.00
C3       0.58238    0.27971    0.23206   1.00
H1       0.46885    0.19881    0.28869   1.00
H1       0.53148    0.19434    0.28126   1.00
C5       0.47980    0.30775    0.21144   1.00
C5       0.52020    0.31255    0.21911   1.00
H1       0.40045    0.19977    0.28652   1.00
H1       0.59990    0.19608    0.27950   1.00
H1       0.40320    0.30123    0.21779   1.00
H1       0.59632    0.30147    0.21716   1.00
O3       0.46039    0.33234    0.18623   1.00
O3       0.53901    0.34679    0.20906   1.00
Si1      0.45753    0.32138    0.13994   1.00
Si1      0.54721    0.37929    0.24288   1.00
C6       0.42462    0.35869    0.12657   1.00
C6       0.50402    0.32925    0.11936   1.00
C6       0.43747    0.27472    0.13125   1.00
C6       0.53307    0.36831    0.29126   1.00
C6       0.59802    0.38552    0.24095   1.00
C6       0.52523    0.42314    0.22748   1.00
C6       0.38806    0.36370    0.15362   1.00
H2       0.44209    0.38496    0.13105   1.00
C6       0.40853    0.36177    0.08379   1.00
H2       0.51642    0.35085    0.13919   1.00
C6       0.53366    0.29453    0.11876   1.00
C6       0.50664    0.34788    0.07774   1.00
H2       0.41169    0.27490    0.15004   1.00
C6       0.42228    0.26599    0.08901   1.00
C6       0.46151    0.23730    0.14248   1.00
C6       0.48929    0.35804    0.29903   1.00
C6       0.55775    0.33866    0.31579   1.00
H2       0.53788    0.39606    0.30614   1.00
H2       0.60949    0.35817    0.25253   1.00
C6       0.61622    0.38959    0.19922   1.00
C6       0.61607    0.41886    0.26634   1.00
H2       0.54625    0.43554    0.20700   1.00
C6       0.48664    0.41911    0.20373   1.00
C6       0.51756    0.45552    0.25881   1.00
H2       0.39654    0.36814    0.18403   1.00
H2       0.36910    0.33809    0.15230   1.00
H2       0.37083    0.38918    0.14514   1.00
H2       0.40392    0.39238    0.07604   1.00
H2       0.42822    0.34937    0.06224   1.00
H2       0.38036    0.34725    0.08039   1.00
H2       0.56328    0.30506    0.11323   1.00
H2       0.53468    0.27921    0.14655   1.00
H2       0.52648    0.27363    0.09582   1.00
H2       0.49138    0.37580    0.07651   1.00
H2       0.53692    0.35395    0.06963   1.00
H2       0.49450    0.32839    0.05563   1.00
H2       0.44486    0.27170    0.06726   1.00
H2       0.41292    0.23564    0.08565   1.00
H2       0.39668    0.28337    0.08213   1.00
H2       0.48098    0.22808    0.11901   1.00
H2       0.47932    0.24101    0.16832   1.00
H2       0.44172    0.21295    0.14835   1.00
H2       0.48312    0.32745    0.29297   1.00
H2       0.48191    0.36313    0.32965   1.00
H2       0.46952    0.37580    0.28165   1.00
H2       0.54875    0.33917    0.34641   1.00
H2       0.55426    0.30878    0.30565   1.00
H2       0.58878    0.34573    0.31551   1.00
H2       0.64798    0.38661    0.20058   1.00
H2       0.60565    0.36676    0.17963   1.00
H2       0.60965    0.41782    0.18604   1.00
H2       0.60584    0.41760    0.29646   1.00
H2       0.64788    0.41621    0.26721   1.00
H2       0.60915    0.44761    0.25444   1.00
H2       0.46344    0.40553    0.22073   1.00
H2       0.47619    0.44739    0.19337   1.00
H2       0.49166    0.40117    0.17811   1.00
H2       0.50956    0.48310    0.24487   1.00
H2       0.49378    0.44736    0.27842   1.00
H2       0.54343    0.46130    0.27638   1.00
C4       1.02084    0.24884    0.24719   1.00
C4       0.97912    0.24855    0.24785   1.00
C3       1.04364    0.22057    0.22724   1.00
C3       0.95616    0.21806    0.23169   1.00
C3       1.04123    0.27859    0.26802   1.00
C3       0.95886    0.28038    0.26549   1.00
C2       1.10512    0.25034    0.24885   1.00
C2       0.89488    0.24966    0.25115   1.00
C3       1.08462    0.22114    0.22822   1.00
C3       0.91519    0.21876    0.23296   1.00
C3       1.08258    0.27909    0.26804   1.00
C3       0.91762    0.27971    0.26794   1.00
H1       1.03115    0.19881    0.21131   1.00
H1       0.96852    0.19434    0.21874   1.00
C5       1.02020    0.30775    0.28856   1.00
C5       0.97980    0.31255    0.28089   1.00
H1       1.09955    0.19977    0.21348   1.00
H1       0.90010    0.19608    0.22050   1.00
H1       1.09680    0.30123    0.28221   1.00
H1       0.90368    0.30147    0.28284   1.00
O3       1.03961    0.33234    0.31377   1.00
O3       0.96099    0.34679    0.29094   1.00
Si1      1.04247    0.32138    0.36006   1.00
Si1      0.95279    0.37929    0.25712   1.00
C6       1.07538    0.35869    0.37343   1.00
C6       0.99598    0.32925    0.38064   1.00
C6       1.06253    0.27472    0.36875   1.00
C6       0.96693    0.36831    0.20874   1.00
C6       0.90198    0.38552    0.25905   1.00
C6       0.97477    0.42314    0.27252   1.00
C6       1.11194    0.36370    0.34638   1.00
H2       1.05791    0.38496    0.36895   1.00
C6       1.09147    0.36177    0.41621   1.00
H2       0.98358    0.35085    0.36081   1.00
C6       0.96634    0.29453    0.38124   1.00
C6       0.99336    0.34788    0.42226   1.00
H2       1.08831    0.27490    0.34996   1.00
C6       1.07772    0.26599    0.41099   1.00
C6       1.03849    0.23730    0.35752   1.00
C6       1.01071    0.35804    0.20097   1.00
C6       0.94225    0.33866    0.18421   1.00
H2       0.96212    0.39606    0.19386   1.00
H2       0.89051    0.35817    0.24747   1.00
C6       0.88378    0.38959    0.30078   1.00
C6       0.88393    0.41886    0.23366   1.00
H2       0.95375    0.43554    0.29300   1.00
C6       1.01336    0.41911    0.29627   1.00
C6       0.98244    0.45552    0.24119   1.00
H2       1.10346    0.36814    0.31597   1.00
H2       1.13090    0.33809    0.34770   1.00
H2       1.12917    0.38918    0.35486   1.00
H2       1.09608    0.39238    0.42396   1.00
H2       1.07178    0.34937    0.43776   1.00
H2       1.11964    0.34725    0.41961   1.00
H2       0.93672    0.30506    0.38677   1.00
H2       0.96532    0.27921    0.35345   1.00
H2       0.97352    0.27363    0.40418   1.00
H2       1.00862    0.37580    0.42349   1.00
H2       0.96308    0.35395    0.43037   1.00
H2       1.00550    0.32839    0.44437   1.00
H2       1.05514    0.27170    0.43274   1.00
H2       1.08708    0.23564    0.41435   1.00
H2       1.10332    0.28337    0.41787   1.00
H2       1.01902    0.22808    0.38099   1.00
H2       1.02068    0.24101    0.33168   1.00
H2       1.05828    0.21295    0.35165   1.00
H2       1.01688    0.32745    0.20703   1.00
H2       1.01809    0.36313    0.17035   1.00
H2       1.03048    0.37580    0.21835   1.00
H2       0.95125    0.33917    0.15359   1.00
H2       0.94574    0.30878    0.19435   1.00
H2       0.91122    0.34573    0.18449   1.00
H2       0.85202    0.38661    0.29942   1.00
H2       0.89435    0.36676    0.32037   1.00
H2       0.89035    0.41782    0.31396   1.00
H2       0.89416    0.41760    0.20354   1.00
H2       0.85212    0.41621    0.23279   1.00
H2       0.89085    0.44761    0.24556   1.00
H2       1.03656    0.40553    0.27927   1.00
H2       1.02381    0.44739    0.30663   1.00
H2       1.00834    0.40117    0.32189   1.00
H2       0.99044    0.48310    0.25513   1.00
H2       1.00622    0.44736    0.22158   1.00
H2       0.95657    0.46130    0.22362   1.00
C4       0.75281    -0.02084   0.24884   1.00
C4       0.75215    0.02088    0.24855   1.00
C3       0.77276    -0.04364   0.22057   1.00
C3       0.76831    0.04384    0.21806   1.00
C3       0.73198    -0.04123   0.27859   1.00
C3       0.73451    0.04114    0.28038   1.00
C2       0.75115    -0.10512   0.25034   1.00
C2       0.74885    0.10512    0.24966   1.00
C3       0.77178    -0.08462   0.22114   1.00
C3       0.76704    0.08481    0.21876   1.00
C3       0.73196    -0.08258   0.27909   1.00
C3       0.73206    0.08238    0.27971   1.00
H1       0.78869    -0.03115   0.19881   1.00
H1       0.78126    0.03148    0.19434   1.00
C5       0.71144    -0.02020   0.30775   1.00
C5       0.71911    0.02020    0.31255   1.00
H1       0.78652    -0.09955   0.19977   1.00
H1       0.77950    0.09990    0.19608   1.00
H1       0.71779    -0.09680   0.30123   1.00
H1       0.71716    0.09632    0.30147   1.00
O3       0.68623    -0.03961   0.33234   1.00
O3       0.70906    0.03901    0.34679   1.00
Si1      0.63994    -0.04247   0.32138   1.00
Si1      0.74288    0.04721    0.37929   1.00
C6       0.62657    -0.07538   0.35869   1.00
C6       0.61936    0.00402    0.32925   1.00
C6       0.63125    -0.06253   0.27472   1.00
C6       0.79126    0.03307    0.36831   1.00
C6       0.74095    0.09802    0.38552   1.00
C6       0.72748    0.02523    0.42314   1.00
C6       0.65362    -0.11194   0.36370   1.00
H2       0.63105    -0.05791   0.38496   1.00
C6       0.58379    -0.09147   0.36177   1.00
H2       0.63919    0.01642    0.35085   1.00
C6       0.61876    0.03366    0.29453   1.00
C6       0.57774    0.00664    0.34788   1.00
H2       0.65004    -0.08831   0.27490   1.00
C6       0.58901    -0.07772   0.26599   1.00
C6       0.64248    -0.03849   0.23730   1.00
C6       0.79903    -0.01071   0.35804   1.00
C6       0.81579    0.05775    0.33866   1.00
H2       0.80614    0.03788    0.39606   1.00
H2       0.75253    0.10949    0.35817   1.00
C6       0.69922    0.11622    0.38959   1.00
C6       0.76634    0.11607    0.41886   1.00
H2       0.70700    0.04625    0.43554   1.00
C6       0.70373    -0.01336   0.41911   1.00
C6       0.75881    0.01756    0.45552   1.00
H2       0.68403    -0.10346   0.36814   1.00
H2       0.65230    -0.13090   0.33809   1.00
H2       0.64514    -0.12917   0.38918   1.00
H2       0.57604    -0.09608   0.39238   1.00
H2       0.56224    -0.07178   0.34937   1.00
H2       0.58039    -0.11964   0.34725   1.00
H2       0.61323    0.06328    0.30506   1.00
H2       0.64655    0.03468    0.27921   1.00
H2       0.59582    0.02648    0.27363   1.00
H2       0.57651    -0.00862   0.37580   1.00
H2       0.56963    0.03692    0.35395   1.00
H2       0.55563    -0.00550   0.32839   1.00
H2       0.56726    -0.05514   0.27170   1.00
H2       0.58565    -0.08708   0.23564   1.00
H2       0.58213    -0.10332   0.28337   1.00
H2       0.61901    -0.01902   0.22808   1.00
H2       0.66832    -0.02068   0.24101   1.00
H2       0.64835    -0.05828   0.21295   1.00
H2       0.79297    -0.01688   0.32745   1.00
H2       0.82965    -0.01809   0.36313   1.00
H2       0.78165    -0.03048   0.37580   1.00
H2       0.84641    0.04875    0.33917   1.00
H2       0.80565    0.05426    0.30878   1.00
H2       0.81551    0.08878    0.34573   1.00
H2       0.70058    0.14798    0.38661   1.00
H2       0.67963    0.10565    0.36676   1.00
H2       0.68604    0.10965    0.41782   1.00
H2       0.79646    0.10584    0.41760   1.00
H2       0.76721    0.14788    0.41621   1.00
H2       0.75444    0.10915    0.44761   1.00
H2       0.72073    -0.03656   0.40553   1.00
H2       0.69337    -0.02381   0.44739   1.00
H2       0.67811    -0.00834   0.40117   1.00
H2       0.74487    0.00956    0.48310   1.00
H2       0.77842    -0.00622   0.44736   1.00
H2       0.77638    0.04343    0.46130   1.00
C4       0.74884    0.25281    -0.02084   1.00
C4       0.74855    0.25215    0.02088   1.00
C3       0.72057    0.27276    -0.04364   1.00
C3       0.71806    0.26831    0.04384   1.00
C3       0.77859    0.23198    -0.04123   1.00
C3       0.78038    0.23451    0.04114   1.00
C2       0.75034    0.25115    -0.10512   1.00
C2       0.74966    0.24885    0.10512   1.00
C3       0.72114    0.27178    -0.08462   1.00
C3       0.71876    0.26704    0.08481   1.00
C3       0.77909    0.23196    -0.08258   1.00
C3       0.77971    0.23206    0.08238   1.00
H1       0.69881    0.28869    -0.03115   1.00
H1       0.69434    0.28126    0.03148   1.00
C5       0.80775    0.21144    -0.02020   1.00
C5       0.81255    0.21911    0.02020   1.00
H1       0.69977    0.28652    -0.09955   1.00
H1       0.69608    0.27950    0.09990   1.00
H1       0.80123    0.21779    -0.09680   1.00
H1       0.80147    0.21716    0.09632   1.00
O3       0.83234    0.18623    -0.03961   1.00
O3       0.84679    0.20906    0.03901   1.00
Si1      0.82138    0.13994    -0.04247   1.00
Si1      0.87929    0.24288    0.04721   1.00
C6       0.85869    0.12657    -0.07538   1.00
C6       0.82925    0.11936    0.00402   1.00
C6       0.77472    0.13125    -0.06253   1.00
C6       0.86831    0.29126    0.03307   1.00
C6       0.88552    0.24095    0.09802   1.00
C6       0.92314    0.22748    0.02523   1.00
C6       0.86370    0.15362    -0.11194   1.00
H2       0.88496    0.13105    -0.05791   1.00
C6       0.86177    0.08379    -0.09147   1.00
H2       0.85085    0.13919    0.01642   1.00
C6       0.79453    0.11876    0.03366   1.00
C6       0.84788    0.07774    0.00664   1.00
H2       0.77490    0.15004    -0.08831   1.00
C6       0.76599    0.08901    -0.07772   1.00
C6       0.73730    0.14248    -0.03849   1.00
C6       0.85804    0.29903    -0.01071   1.00
C6       0.83866    0.31579    0.05775   1.00
H2       0.89606    0.30614    0.03788   1.00
H2       0.85817    0.25253    0.10949   1.00
C6       0.88959    0.19922    0.11622   1.00
C6       0.91886    0.26634    0.11607   1.00
H2       0.93554    0.20700    0.04625   1.00
C6       0.91911    0.20373    -0.01336   1.00
C6       0.95552    0.25881    0.01756   1.00
H2       0.86814    0.18403    -0.10346   1.00
H2       0.83809    0.15230    -0.13090   1.00
H2       0.88918    0.14514    -0.12917   1.00
H2       0.89238    0.07604    -0.09608   1.00
H2       0.84937    0.06224    -0.07178   1.00
H2       0.84725    0.08039    -0.11964   1.00
H2       0.80506    0.11323    0.06328   1.00
H2       0.77921    0.14655    0.03468   1.00
H2       0.77363    0.09582    0.02648   1.00
H2       0.87580    0.07651    -0.00862   1.00
H2       0.85395    0.06963    0.03692   1.00
H2       0.82839    0.05563    -0.00550   1.00
H2       0.77170    0.06726    -0.05514   1.00
H2       0.73564    0.08565    -0.08708   1.00
H2       0.78337    0.08213    -0.10332   1.00
H2       0.72808    0.11901    -0.01902   1.00
H2       0.74101    0.16832    -0.02068   1.00
H2       0.71295    0.14835    -0.05828   1.00
H2       0.82745    0.29297    -0.01688   1.00
H2       0.86313    0.32965    -0.01809   1.00
H2       0.87580    0.28165    -0.03048   1.00
H2       0.83917    0.34641    0.04875   1.00
H2       0.80878    0.30565    0.05426   1.00
H2       0.84573    0.31551    0.08878   1.00
H2       0.88661    0.20058    0.14798   1.00
H2       0.86676    0.17963    0.10565   1.00
H2       0.91782    0.18604    0.10965   1.00
H2       0.91760    0.29646    0.10584   1.00
H2       0.91621    0.26721    0.14788   1.00
H2       0.94761    0.25444    0.10915   1.00
H2       0.90553    0.22073    -0.03656   1.00
H2       0.94739    0.19337    -0.02381   1.00
H2       0.90117    0.17811    -0.00834   1.00
H2       0.98310    0.24487    0.00956   1.00
H2       0.94736    0.27842    -0.00622   1.00
H2       0.96130    0.27638    0.04343   1.00
C4       0.91384    0.91219    1.18584   1.00
C4       0.91355    0.91285    1.14412   1.00
C3       0.88557    0.89224    1.20864   1.00
C3       0.88306    0.89669    1.12116   1.00
C3       0.94359    0.93302    1.20623   1.00
C3       0.94538    0.93049    1.12386   1.00
C2       0.91534    0.91385    1.27012   1.00
C2       0.91466    0.91615    1.05988   1.00
C3       0.88614    0.89322    1.24962   1.00
C3       0.88376    0.89796    1.08019   1.00
C3       0.94409    0.93304    1.24758   1.00
C3       0.94471    0.93294    1.08262   1.00
H1       0.86381    0.87631    1.19615   1.00
H1       0.85934    0.88374    1.13352   1.00
C5       0.97275    0.95356    1.18520   1.00
C5       0.97755    0.94589    1.14480   1.00
H1       0.86477    0.87848    1.26455   1.00
H1       0.86108    0.88550    1.06510   1.00
H1       0.96623    0.94721    1.26180   1.00
H1       0.96647    0.94784    1.06868   1.00
O3       0.99734    0.97877    1.20461   1.00
O3       1.01179    0.95594    1.12599   1.00
Si1      0.98638    1.02506    1.20747   1.00
Si1      1.04429    0.92212    1.11779   1.00
C6       1.02369    1.03843    1.24038   1.00
C6       0.99425    1.04564    1.16098   1.00
C6       0.93972    1.03375    1.22753   1.00
C6       1.03331    0.87374    1.13193   1.00
C6       1.05052    0.92405    1.06698   1.00
C6       1.08814    0.93752    1.13977   1.00
C6       1.02870    1.01138    1.27694   1.00
H2       1.04996    1.03395    1.22291   1.00
C6       1.02677    1.08121    1.25647   1.00
H2       1.01585    1.02581    1.14858   1.00
C6       0.95953    1.04624    1.13134   1.00
C6       1.01288    1.08726    1.15836   1.00
H2       0.93990    1.01496    1.25331   1.00
C6       0.93099    1.07599    1.24272   1.00
C6       0.90230    1.02252    1.20349   1.00
C6       1.02304    0.86597    1.17571   1.00
C6       1.00366    0.84921    1.10725   1.00
H2       1.06106    0.85886    1.12712   1.00
H2       1.02317    0.91247    1.05551   1.00
C6       1.05459    0.96578    1.04878   1.00
C6       1.08386    0.89866    1.04893   1.00
H2       1.10054    0.95800    1.11875   1.00
C6       1.08411    0.96127    1.17836   1.00
C6       1.12052    0.90619    1.14744   1.00
H2       1.03314    0.98097    1.26846   1.00
H2       1.00309    1.01270    1.29590   1.00
H2       1.05418    1.01986    1.29417   1.00
H2       1.05738    1.08896    1.26108   1.00
H2       1.01437    1.10276    1.23678   1.00
H2       1.01225    1.08461    1.28464   1.00
H2       0.97006    1.05177    1.10172   1.00
H2       0.94421    1.01845    1.13032   1.00
H2       0.93863    1.06918    1.13852   1.00
H2       1.04080    1.08849    1.17362   1.00
H2       1.01895    1.09537    1.12808   1.00
H2       0.99339    1.10937    1.17050   1.00
H2       0.93670    1.09774    1.22014   1.00
H2       0.90064    1.07935    1.25208   1.00
H2       0.94837    1.08287    1.26832   1.00
H2       0.89308    1.04599    1.18402   1.00
H2       0.90601    0.99668    1.18568   1.00
H2       0.87795    1.01665    1.22328   1.00
H2       0.99245    0.87203    1.18188   1.00
H2       1.02813    0.83535    1.18309   1.00
H2       1.04080    0.88335    1.19548   1.00
H2       1.00417    0.81859    1.11625   1.00
H2       0.97378    0.85935    1.11074   1.00
H2       1.01073    0.84949    1.07622   1.00
H2       1.05161    0.96442    1.01702   1.00
H2       1.03176    0.98537    1.05935   1.00
H2       1.08282    0.97896    1.05535   1.00
H2       1.08260    0.86854    1.05916   1.00
H2       1.08121    0.89779    1.01712   1.00
H2       1.11261    0.91056    1.05585   1.00
H2       1.07053    0.94427    1.20156   1.00
H2       1.11239    0.97163    1.18881   1.00
H2       1.06617    0.98689    1.17334   1.00
H2       1.14810    0.92013    1.15544   1.00
H2       1.11236    0.88658    1.17122   1.00
H2       1.12630    0.88862    1.12157   1.00
C4       0.91219    1.18584    0.91384   1.00
C4       0.91285    1.14412    0.91355   1.00
C3       0.89224    1.20864    0.88557   1.00
C3       0.89669    1.12116    0.88306   1.00
C3       0.93302    1.20623    0.94359   1.00
C3       0.93049    1.12386    0.94538   1.00
C2       0.91385    1.27012    0.91534   1.00
C2       0.91615    1.05988    0.91466   1.00
C3       0.89322    1.24962    0.88614   1.00
C3       0.89796    1.08019    0.88376   1.00
C3       0.93304    1.24758    0.94409   1.00
C3       0.93294    1.08262    0.94471   1.00
H1       0.87631    1.19615    0.86381   1.00
H1       0.88374    1.13352    0.85934   1.00
C5       0.95356    1.18520    0.97275   1.00
C5       0.94589    1.14480    0.97755   1.00
H1       0.87848    1.26455    0.86477   1.00
H1       0.88550    1.06510    0.86108   1.00
H1       0.94721    1.26180    0.96623   1.00
H1       0.94784    1.06868    0.96647   1.00
O3       0.97877    1.20461    0.99734   1.00
O3       0.95594    1.12599    1.01179   1.00
Si1      1.02506    1.20747    0.98638   1.00
Si1      0.92212    1.11779    1.04429   1.00
C6       1.03843    1.24038    1.02369   1.00
C6       1.04564    1.16098    0.99425   1.00
C6       1.03375    1.22753    0.93972   1.00
C6       0.87374    1.13193    1.03331   1.00
C6       0.92405    1.06698    1.05052   1.00
C6       0.93752    1.13977    1.08814   1.00
C6       1.01138    1.27694    1.02870   1.00
H2       1.03395    1.22291    1.04996   1.00
C6       1.08121    1.25647    1.02677   1.00
H2       1.02581    1.14858    1.01585   1.00
C6       1.04624    1.13134    0.95953   1.00
C6       1.08726    1.15836    1.01288   1.00
H2       1.01496    1.25331    0.93990   1.00
C6       1.07599    1.24272    0.93099   1.00
C6       1.02252    1.20349    0.90230   1.00
C6       0.86597    1.17571    1.02304   1.00
C6       0.84921    1.10725    1.00366   1.00
H2       0.85886    1.12712    1.06106   1.00
H2       0.91247    1.05551    1.02317   1.00
C6       0.96578    1.04878    1.05459   1.00
C6       0.89866    1.04893    1.08386   1.00
H2       0.95800    1.11875    1.10054   1.00
C6       0.96127    1.17836    1.08411   1.00
C6       0.90619    1.14744    1.12052   1.00
H2       0.98097    1.26846    1.03314   1.00
H2       1.01270    1.29590    1.00309   1.00
H2       1.01986    1.29417    1.05418   1.00
H2       1.08896    1.26108    1.05738   1.00
H2       1.10276    1.23678    1.01437   1.00
H2       1.08461    1.28464    1.01225   1.00
H2       1.05177    1.10172    0.97006   1.00
H2       1.01845    1.13032    0.94421   1.00
H2       1.06918    1.13852    0.93863   1.00
H2       1.08849    1.17362    1.04080   1.00
H2       1.09537    1.12808    1.01895   1.00
H2       1.10937    1.17050    0.99339   1.00
H2       1.09774    1.22014    0.93670   1.00
H2       1.07935    1.25208    0.90064   1.00
H2       1.08287    1.26832    0.94837   1.00
H2       1.04599    1.18402    0.89308   1.00
H2       0.99668    1.18568    0.90601   1.00
H2       1.01665    1.22328    0.87795   1.00
H2       0.87203    1.18188    0.99245   1.00
H2       0.83535    1.18309    1.02813   1.00
H2       0.88335    1.19548    1.04080   1.00
H2       0.81859    1.11625    1.00417   1.00
H2       0.85935    1.11074    0.97378   1.00
H2       0.84949    1.07622    1.01073   1.00
H2       0.96442    1.01702    1.05161   1.00
H2       0.98537    1.05935    1.03176   1.00
H2       0.97896    1.05535    1.08282   1.00
H2       0.86854    1.05916    1.08260   1.00
H2       0.89779    1.01712    1.08121   1.00
H2       0.91056    1.05585    1.11261   1.00
H2       0.94427    1.20156    1.07053   1.00
H2       0.97163    1.18881    1.11239   1.00
H2       0.98689    1.17334    1.06617   1.00
H2       0.92013    1.15544    1.14810   1.00
H2       0.88658    1.17122    1.11236   1.00
H2       0.88862    1.12157    1.12630   1.00
C4       0.64416    0.91384    0.91781   1.00
C4       0.68588    0.91355    0.91715   1.00
C3       0.62136    0.88557    0.93776   1.00
C3       0.70884    0.88306    0.93331   1.00
C3       0.62377    0.94359    0.89698   1.00
C3       0.70614    0.94538    0.89951   1.00
C2       0.55988    0.91534    0.91615   1.00
C2       0.77012    0.91466    0.91385   1.00
C3       0.58038    0.88614    0.93678   1.00
C3       0.74981    0.88376    0.93204   1.00
C3       0.58242    0.94409    0.89696   1.00
C3       0.74738    0.94471    0.89706   1.00
H1       0.63385    0.86381    0.95369   1.00
H1       0.69648    0.85934    0.94626   1.00
C5       0.64480    0.97275    0.87644   1.00
C5       0.68520    0.97755    0.88411   1.00
H1       0.56545    0.86477    0.95152   1.00
H1       0.76490    0.86108    0.94450   1.00
H1       0.56820    0.96623    0.88279   1.00
H1       0.76132    0.96647    0.88216   1.00
O3       0.62539    0.99734    0.85123   1.00
O3       0.70401    1.01179    0.87406   1.00
Si1      0.62253    0.98638    0.80494   1.00
Si1      0.71221    1.04429    0.90788   1.00
C6       0.58962    1.02369    0.79157   1.00
C6       0.66902    0.99425    0.78436   1.00
C6       0.60247    0.93972    0.79625   1.00
C6       0.69807    1.03331    0.95626   1.00
C6       0.76302    1.05052    0.90595   1.00
C6       0.69023    1.08814    0.89248   1.00
C6       0.55306    1.02870    0.81862   1.00
H2       0.60709    1.04996    0.79605   1.00
C6       0.57353    1.02677    0.74879   1.00
H2       0.68142    1.01585    0.80419   1.00
C6       0.69866    0.95953    0.78376   1.00
C6       0.67164    1.01288    0.74274   1.00
H2       0.57669    0.93990    0.81504   1.00
C6       0.58728    0.93099    0.75401   1.00
C6       0.62651    0.90230    0.80748   1.00
C6       0.65429    1.02304    0.96403   1.00
C6       0.72275    1.00366    0.98079   1.00
H2       0.70288    1.06106    0.97114   1.00
H2       0.77449    1.02317    0.91753   1.00
C6       0.78122    1.05459    0.86422   1.00
C6       0.78107    1.08386    0.93134   1.00
H2       0.71125    1.10054    0.87200   1.00
C6       0.65164    1.08411    0.86873   1.00
C6       0.68256    1.12052    0.92381   1.00
H2       0.56154    1.03314    0.84903   1.00
H2       0.53410    1.00309    0.81730   1.00
H2       0.53583    1.05418    0.81014   1.00
H2       0.56892    1.05738    0.74104   1.00
H2       0.59322    1.01437    0.72724   1.00
H2       0.54536    1.01225    0.74539   1.00
H2       0.72828    0.97006    0.77823   1.00
H2       0.69968    0.94421    0.81155   1.00
H2       0.69148    0.93863    0.76082   1.00
H2       0.65638    1.04080    0.74151   1.00
H2       0.70192    1.01895    0.73463   1.00
H2       0.65950    0.99339    0.72063   1.00
H2       0.60986    0.93670    0.73226   1.00
H2       0.57792    0.90064    0.75065   1.00
H2       0.56168    0.94837    0.74713   1.00
H2       0.64598    0.89308    0.78401   1.00
H2       0.64432    0.90601    0.83332   1.00
H2       0.60672    0.87795    0.81335   1.00
H2       0.64812    0.99245    0.95797   1.00
H2       0.64691    1.02813    0.99465   1.00
H2       0.63452    1.04080    0.94665   1.00
H2       0.71375    1.00417    1.01141   1.00
H2       0.71926    0.97378    0.97065   1.00
H2       0.75378    1.01073    0.98051   1.00
H2       0.81298    1.05161    0.86558   1.00
H2       0.77065    1.03176    0.84463   1.00
H2       0.77465    1.08282    0.85104   1.00
H2       0.77084    1.08260    0.96146   1.00
H2       0.81288    1.08121    0.93221   1.00
H2       0.77415    1.11261    0.91944   1.00
H2       0.62844    1.07053    0.88573   1.00
H2       0.64119    1.11239    0.85837   1.00
H2       0.65666    1.06617    0.84311   1.00
H2       0.67456    1.14810    0.90987   1.00
H2       0.65878    1.11236    0.94342   1.00
H2       0.70843    1.12630    0.94138   1.00
C4       1.18584    0.91384    0.91219   1.00
C4       1.14412    0.91355    0.91285   1.00
C3       1.20864    0.88557    0.89224   1.00
C3       1.12116    0.88306    0.89669   1.00
C3       1.20623    0.94359    0.93302   1.00
C3       1.12386    0.94538    0.93049   1.00
C2       1.27012    0.91534    0.91385   1.00
C2       1.05988    0.91466    0.91615   1.00
C3       1.24962    0.88614    0.89322   1.00
C3       1.08019    0.88376    0.89796   1.00
C3       1.24758    0.94409    0.93304   1.00
C3       1.08262    0.94471    0.93294   1.00
H1       1.19615    0.86381    0.87631   1.00
H1       1.13352    0.85934    0.88374   1.00
C5       1.18520    0.97275    0.95356   1.00
C5       1.14480    0.97755    0.94589   1.00
H1       1.26455    0.86477    0.87848   1.00
H1       1.06510    0.86108    0.88550   1.00
H1       1.26180    0.96623    0.94721   1.00
H1       1.06868    0.96647    0.94784   1.00
O3       1.20461    0.99734    0.97877   1.00
O3       1.12599    1.01179    0.95594   1.00
Si1      1.20747    0.98638    1.02506   1.00
Si1      1.11779    1.04429    0.92212   1.00
C6       1.24038    1.02369    1.03843   1.00
C6       1.16098    0.99425    1.04564   1.00
C6       1.22753    0.93972    1.03375   1.00
C6       1.13193    1.03331    0.87374   1.00
C6       1.06698    1.05052    0.92405   1.00
C6       1.13977    1.08814    0.93752   1.00
C6       1.27694    1.02870    1.01138   1.00
H2       1.22291    1.04996    1.03395   1.00
C6       1.25647    1.02677    1.08121   1.00
H2       1.14858    1.01585    1.02581   1.00
C6       1.13134    0.95953    1.04624   1.00
C6       1.15836    1.01288    1.08726   1.00
H2       1.25331    0.93990    1.01496   1.00
C6       1.24272    0.93099    1.07599   1.00
C6       1.20349    0.90230    1.02252   1.00
C6       1.17571    1.02304    0.86597   1.00
C6       1.10725    1.00366    0.84921   1.00
H2       1.12712    1.06106    0.85886   1.00
H2       1.05551    1.02317    0.91247   1.00
C6       1.04878    1.05459    0.96578   1.00
C6       1.04893    1.08386    0.89866   1.00
H2       1.11875    1.10054    0.95800   1.00
C6       1.17836    1.08411    0.96127   1.00
C6       1.14744    1.12052    0.90619   1.00
H2       1.26846    1.03314    0.98097   1.00
H2       1.29590    1.00309    1.01270   1.00
H2       1.29417    1.05418    1.01986   1.00
H2       1.26108    1.05738    1.08896   1.00
H2       1.23678    1.01437    1.10276   1.00
H2       1.28464    1.01225    1.08461   1.00
H2       1.10172    0.97006    1.05177   1.00
H2       1.13032    0.94421    1.01845   1.00
H2       1.13852    0.93863    1.06918   1.00
H2       1.17362    1.04080    1.08849   1.00
H2       1.12808    1.01895    1.09537   1.00
H2       1.17050    0.99339    1.10937   1.00
H2       1.22014    0.93670    1.09774   1.00
H2       1.25208    0.90064    1.07935   1.00
H2       1.26832    0.94837    1.08287   1.00
H2       1.18402    0.89308    1.04599   1.00
H2       1.18568    0.90601    0.99668   1.00
H2       1.22328    0.87795    1.01665   1.00
H2       1.18188    0.99245    0.87203   1.00
H2       1.18309    1.02813    0.83535   1.00
H2       1.19548    1.04080    0.88335   1.00
H2       1.11625    1.00417    0.81859   1.00
H2       1.11074    0.97378    0.85935   1.00
H2       1.07622    1.01073    0.84949   1.00
H2       1.01702    1.05161    0.96442   1.00
H2       1.05935    1.03176    0.98537   1.00
H2       1.05535    1.08282    0.97896   1.00
H2       1.05916    1.08260    0.86854   1.00
H2       1.01712    1.08121    0.89779   1.00
H2       1.05585    1.11261    0.91056   1.00
H2       1.20156    1.07053    0.94427   1.00
H2       1.18881    1.11239    0.97163   1.00
H2       1.17334    1.06617    0.98689   1.00
H2       1.15544    1.14810    0.92013   1.00
H2       1.17122    1.11236    0.88658   1.00
H2       1.12157    1.12630    0.88862   1.00
C4       0.91781    0.64416    0.91384   1.00
C4       0.91715    0.68588    0.91355   1.00
C3       0.93776    0.62136    0.88557   1.00
C3       0.93331    0.70884    0.88306   1.00
C3       0.89698    0.62377    0.94359   1.00
C3       0.89951    0.70614    0.94538   1.00
C2       0.91615    0.55988    0.91534   1.00
C2       0.91385    0.77012    0.91466   1.00
C3       0.93678    0.58038    0.88614   1.00
C3       0.93204    0.74981    0.88376   1.00
C3       0.89696    0.58242    0.94409   1.00
C3       0.89706    0.74738    0.94471   1.00
H1       0.95369    0.63385    0.86381   1.00
H1       0.94626    0.69648    0.85934   1.00
C5       0.87644    0.64480    0.97275   1.00
C5       0.88411    0.68520    0.97755   1.00
H1       0.95152    0.56545    0.86477   1.00
H1       0.94450    0.76490    0.86108   1.00
H1       0.88279    0.56820    0.96623   1.00
H1       0.88216    0.76132    0.96647   1.00
O3       0.85123    0.62539    0.99734   1.00
O3       0.87406    0.70401    1.01179   1.00
Si1      0.80494    0.62253    0.98638   1.00
Si1      0.90788    0.71221    1.04429   1.00
C6       0.79157    0.58962    1.02369   1.00
C6       0.78436    0.66902    0.99425   1.00
C6       0.79625    0.60247    0.93972   1.00
C6       0.95626    0.69807    1.03331   1.00
C6       0.90595    0.76302    1.05052   1.00
C6       0.89248    0.69023    1.08814   1.00
C6       0.81862    0.55306    1.02870   1.00
H2       0.79605    0.60709    1.04996   1.00
C6       0.74879    0.57353    1.02677   1.00
H2       0.80419    0.68142    1.01585   1.00
C6       0.78376    0.69866    0.95953   1.00
C6       0.74274    0.67164    1.01288   1.00
H2       0.81504    0.57669    0.93990   1.00
C6       0.75401    0.58728    0.93099   1.00
C6       0.80748    0.62651    0.90230   1.00
C6       0.96403    0.65429    1.02304   1.00
C6       0.98079    0.72275    1.00366   1.00
H2       0.97114    0.70288    1.06106   1.00
H2       0.91753    0.77449    1.02317   1.00
C6       0.86422    0.78122    1.05459   1.00
C6       0.93134    0.78107    1.08386   1.00
H2       0.87200    0.71125    1.10054   1.00
C6       0.86873    0.65164    1.08411   1.00
C6       0.92381    0.68256    1.12052   1.00
H2       0.84903    0.56154    1.03314   1.00
H2       0.81730    0.53410    1.00309   1.00
H2       0.81014    0.53583    1.05418   1.00
H2       0.74104    0.56892    1.05738   1.00
H2       0.72724    0.59322    1.01437   1.00
H2       0.74539    0.54536    1.01225   1.00
H2       0.77823    0.72828    0.97006   1.00
H2       0.81155    0.69968    0.94421   1.00
H2       0.76082    0.69148    0.93863   1.00
H2       0.74151    0.65638    1.04080   1.00
H2       0.73463    0.70192    1.01895   1.00
H2       0.72063    0.65950    0.99339   1.00
H2       0.73226    0.60986    0.93670   1.00
H2       0.75065    0.57792    0.90064   1.00
H2       0.74713    0.56168    0.94837   1.00
H2       0.78401    0.64598    0.89308   1.00
H2       0.83332    0.64432    0.90601   1.00
H2       0.81335    0.60672    0.87795   1.00
H2       0.95797    0.64812    0.99245   1.00
H2       0.99465    0.64691    1.02813   1.00
H2       0.94665    0.63452    1.04080   1.00
H2       1.01141    0.71375    1.00417   1.00
H2       0.97065    0.71926    0.97378   1.00
H2       0.98051    0.75378    1.01073   1.00
H2       0.86558    0.81298    1.05161   1.00
H2       0.84463    0.77065    1.03176   1.00
H2       0.85104    0.77465    1.08282   1.00
H2       0.96146    0.77084    1.08260   1.00
H2       0.93221    0.81288    1.08121   1.00
H2       0.91944    0.77415    1.11261   1.00
H2       0.88573    0.62844    1.07053   1.00
H2       0.85837    0.64119    1.11239   1.00
H2       0.84311    0.65666    1.06617   1.00
H2       0.90987    0.67456    1.14810   1.00
H2       0.94342    0.65878    1.11236   1.00
H2       0.94138    0.70843    1.12630   1.00
C4       0.91384    0.91781    0.64416   1.00
C4       0.91355    0.91715    0.68588   1.00
C3       0.88557    0.93776    0.62136   1.00
C3       0.88306    0.93331    0.70884   1.00
C3       0.94359    0.89698    0.62377   1.00
C3       0.94538    0.89951    0.70614   1.00
C2       0.91534    0.91615    0.55988   1.00
C2       0.91466    0.91385    0.77012   1.00
C3       0.88614    0.93678    0.58038   1.00
C3       0.88376    0.93204    0.74981   1.00
C3       0.94409    0.89696    0.58242   1.00
C3       0.94471    0.89706    0.74738   1.00
H1       0.86381    0.95369    0.63385   1.00
H1       0.85934    0.94626    0.69648   1.00
C5       0.97275    0.87644    0.64480   1.00
C5       0.97755    0.88411    0.68520   1.00
H1       0.86477    0.95152    0.56545   1.00
H1       0.86108    0.94450    0.76490   1.00
H1       0.96623    0.88279    0.56820   1.00
H1       0.96647    0.88216    0.76132   1.00
O3       0.99734    0.85123    0.62539   1.00
O3       1.01179    0.87406    0.70401   1.00
Si1      0.98638    0.80494    0.62253   1.00
Si1      1.04429    0.90788    0.71221   1.00
C6       1.02369    0.79157    0.58962   1.00
C6       0.99425    0.78436    0.66902   1.00
C6       0.93972    0.79625    0.60247   1.00
C6       1.03331    0.95626    0.69807   1.00
C6       1.05052    0.90595    0.76302   1.00
C6       1.08814    0.89248    0.69023   1.00
C6       1.02870    0.81862    0.55306   1.00
H2       1.04996    0.79605    0.60709   1.00
C6       1.02677    0.74879    0.57353   1.00
H2       1.01585    0.80419    0.68142   1.00
C6       0.95953    0.78376    0.69866   1.00
C6       1.01288    0.74274    0.67164   1.00
H2       0.93990    0.81504    0.57669   1.00
C6       0.93099    0.75401    0.58728   1.00
C6       0.90230    0.80748    0.62651   1.00
C6       1.02304    0.96403    0.65429   1.00
C6       1.00366    0.98079    0.72275   1.00
H2       1.06106    0.97114    0.70288   1.00
H2       1.02317    0.91753    0.77449   1.00
C6       1.05459    0.86422    0.78122   1.00
C6       1.08386    0.93134    0.78107   1.00
H2       1.10054    0.87200    0.71125   1.00
C6       1.08411    0.86873    0.65164   1.00
C6       1.12052    0.92381    0.68256   1.00
H2       1.03314    0.84903    0.56154   1.00
H2       1.00309    0.81730    0.53410   1.00
H2       1.05418    0.81014    0.53583   1.00
H2       1.05738    0.74104    0.56892   1.00
H2       1.01437    0.72724    0.59322   1.00
H2       1.01225    0.74539    0.54536   1.00
H2       0.97006    0.77823    0.72828   1.00
H2       0.94421    0.81155    0.69968   1.00
H2       0.93863    0.76082    0.69148   1.00
H2       1.04080    0.74151    0.65638   1.00
H2       1.01895    0.73463    0.70192   1.00
H2       0.99339    0.72063    0.65950   1.00
H2       0.93670    0.73226    0.60986   1.00
H2       0.90064    0.75065    0.57792   1.00
H2       0.94837    0.74713    0.56168   1.00
H2       0.89308    0.78401    0.64598   1.00
H2       0.90601    0.83332    0.64432   1.00
H2       0.87795    0.81335    0.60672   1.00
H2       0.99245    0.95797    0.64812   1.00
H2       1.02813    0.99465    0.64691   1.00
H2       1.04080    0.94665    0.63452   1.00
H2       1.00417    1.01141    0.71375   1.00
H2       0.97378    0.97065    0.71926   1.00
H2       1.01073    0.98051    0.75378   1.00
H2       1.05161    0.86558    0.81298   1.00
H2       1.03176    0.84463    0.77065   1.00
H2       1.08282    0.85104    0.77465   1.00
H2       1.08260    0.96146    0.77084   1.00
H2       1.08121    0.93221    0.81288   1.00
H2       1.11261    0.91944    0.77415   1.00
H2       1.07053    0.88573    0.62844   1.00
H2       1.11239    0.85837    0.64119   1.00
H2       1.06617    0.84311    0.65666   1.00
H2       1.14810    0.90987    0.67456   1.00
H2       1.11236    0.94342    0.65878   1.00
H2       1.12630    0.94138    0.70843   1.00
C4       0.41384    0.41219    1.18584   1.00
C4       0.41355    0.41285    1.14412   1.00
C3       0.38557    0.39224    1.20864   1.00
C3       0.38306    0.39669    1.12116   1.00
C3       0.44359    0.43302    1.20623   1.00
C3       0.44538    0.43049    1.12386   1.00
C2       0.41534    0.41385    1.27012   1.00
C2       0.41466    0.41615    1.05988   1.00
C3       0.38614    0.39322    1.24962   1.00
C3       0.38376    0.39796    1.08019   1.00
C3       0.44409    0.43304    1.24758   1.00
C3       0.44471    0.43294    1.08262   1.00
H1       0.36381    0.37631    1.19615   1.00
H1       0.35934    0.38374    1.13352   1.00
C5       0.47275    0.45356    1.18520   1.00
C5       0.47755    0.44589    1.14480   1.00
H1       0.36477    0.37848    1.26455   1.00
H1       0.36108    0.38550    1.06510   1.00
H1       0.46623    0.44721    1.26180   1.00
H1       0.46647    0.44784    1.06868   1.00
O3       0.49734    0.47877    1.20461   1.00
O3       0.51179    0.45594    1.12599   1.00
Si1      0.48638    0.52506    1.20747   1.00
Si1      0.54429    0.42212    1.11779   1.00
C6       0.52369    0.53843    1.24038   1.00
C6       0.49425    0.54564    1.16098   1.00
C6       0.43972    0.53375    1.22753   1.00
C6       0.53331    0.37374    1.13193   1.00
C6       0.55052    0.42405    1.06698   1.00
C6       0.58814    0.43752    1.13977   1.00
C6       0.52870    0.51138    1.27694   1.00
H2       0.54996    0.53395    1.22291   1.00
C6       0.52677    0.58121    1.25647   1.00
H2       0.51585    0.52581    1.14858   1.00
C6       0.45953    0.54624    1.13134   1.00
C6       0.51288    0.58726    1.15836   1.00
H2       0.43990    0.51496    1.25331   1.00
C6       0.43099    0.57599    1.24272   1.00
C6       0.40230    0.52252    1.20349   1.00
C6       0.52304    0.36597    1.17571   1.00
C6       0.50366    0.34921    1.10725   1.00
H2       0.56106    0.35886    1.12712   1.00
H2       0.52317    0.41247    1.05551   1.00
C6       0.55459    0.46578    1.04878   1.00
C6       0.58386    0.39866    1.04893   1.00
H2       0.60054    0.45800    1.11875   1.00
C6       0.58411    0.46127    1.17836   1.00
C6       0.62052    0.40619    1.14744   1.00
H2       0.53314    0.48097    1.26846   1.00
H2       0.50309    0.51270    1.29590   1.00
H2       0.55418    0.51986    1.29417   1.00
H2       0.55738    0.58896    1.26108   1.00
H2       0.51437    0.60276    1.23678   1.00
H2       0.51225    0.58461    1.28464   1.00
H2       0.47006    0.55177    1.10172   1.00
H2       0.44421    0.51845    1.13032   1.00
H2       0.43863    0.56918    1.13852   1.00
H2       0.54080    0.58849    1.17362   1.00
H2       0.51895    0.59537    1.12808   1.00
H2       0.49339    0.60937    1.17050   1.00
H2       0.43670    0.59774    1.22014   1.00
H2       0.40064    0.57935    1.25208   1.00
H2       0.44837    0.58287    1.26832   1.00
H2       0.39308    0.54599    1.18402   1.00
H2       0.40601    0.49668    1.18568   1.00
H2       0.37795    0.51665    1.22328   1.00
H2       0.49245    0.37203    1.18188   1.00
H2       0.52813    0.33535    1.18309   1.00
H2       0.54080    0.38335    1.19548   1.00
H2       0.50417    0.31859    1.11625   1.00
H2       0.47378    0.35935    1.11074   1.00
H2       0.51073    0.34949    1.07622   1.00
H2       0.55161    0.46442    1.01702   1.00
H2       0.53176    0.48537    1.05935   1.00
H2       0.58282    0.47896    1.05535   1.00
H2       0.58260    0.36854    1.05916   1.00
H2       0.58121    0.39779    1.01712   1.00
H2       0.61261    0.41056    1.05585   1.00
H2       0.57053    0.44427    1.20156   1.00
H2       0.61239    0.47163    1.18881   1.00
H2       0.56617    0.48689    1.17334   1.00
H2       0.64810    0.42013    1.15544   1.00
H2       0.61236    0.38658    1.17122   1.00
H2       0.62630    0.38862    1.12157   1.00
C4       0.41219    0.68584    0.91384   1.00
C4       0.41285    0.64412    0.91355   1.00
C3       0.39224    0.70864    0.88557   1.00
C3       0.39669    0.62116    0.88306   1.00
C3       0.43302    0.70623    0.94359   1.00
C3       0.43049    0.62386    0.94538   1.00
C2       0.41385    0.77012    0.91534   1.00
C2       0.41615    0.55988    0.91466   1.00
C3       0.39322    0.74962    0.88614   1.00
C3       0.39796    0.58019    0.88376   1.00
C3       0.43304    0.74758    0.94409   1.00
C3       0.43294    0.58262    0.94471   1.00
H1       0.37631    0.69615    0.86381   1.00
H1       0.38374    0.63352    0.85934   1.00
C5       0.45356    0.68520    0.97275   1.00
C5       0.44589    0.64480    0.97755   1.00
H1       0.37848    0.76455    0.86477   1.00
H1       0.38550    0.56510    0.86108   1.00
H1       0.44721    0.76180    0.96623   1.00
H1       0.44784    0.56868    0.96647   1.00
O3       0.47877    0.70461    0.99734   1.00
O3       0.45594    0.62599    1.01179   1.00
Si1      0.52506    0.70747    0.98638   1.00
Si1      0.42212    0.61779    1.04429   1.00
C6       0.53843    0.74038    1.02369   1.00
C6       0.54564    0.66098    0.99425   1.00
C6       0.53375    0.72753    0.93972   1.00
C6       0.37374    0.63193    1.03331   1.00
C6       0.42405    0.56698    1.05052   1.00
C6       0.43752    0.63977    1.08814   1.00
C6       0.51138    0.77694    1.02870   1.00
H2       0.53395    0.72291    1.04996   1.00
C6       0.58121    0.75647    1.02677   1.00
H2       0.52581    0.64858    1.01585   1.00
C6       0.54624    0.63134    0.95953   1.00
C6       0.58726    0.65836    1.01288   1.00
H2       0.51496    0.75331    0.93990   1.00
C6       0.57599    0.74272    0.93099   1.00
C6       0.52252    0.70349    0.90230   1.00
C6       0.36597    0.67571    1.02304   1.00
C6       0.34921    0.60725    1.00366   1.00
H2       0.35886    0.62712    1.06106   1.00
H2       0.41247    0.55551    1.02317   1.00
C6       0.46578    0.54878    1.05459   1.00
C6       0.39866    0.54893    1.08386   1.00
H2       0.45800    0.61875    1.10054   1.00
C6       0.46127    0.67836    1.08411   1.00
C6       0.40619    0.64744    1.12052   1.00
H2       0.48097    0.76846    1.03314   1.00
H2       0.51270    0.79590    1.00309   1.00
H2       0.51986    0.79417    1.05418   1.00
H2       0.58896    0.76108    1.05738   1.00
H2       0.60276    0.73678    1.01437   1.00
H2       0.58461    0.78464    1.01225   1.00
H2       0.55177    0.60172    0.97006   1.00
H2       0.51845    0.63032    0.94421   1.00
H2       0.56918    0.63852    0.93863   1.00
H2       0.58849    0.67362    1.04080   1.00
H2       0.59537    0.62808    1.01895   1.00
H2       0.60937    0.67050    0.99339   1.00
H2       0.59774    0.72014    0.93670   1.00
H2       0.57935    0.75208    0.90064   1.00
H2       0.58287    0.76832    0.94837   1.00
H2       0.54599    0.68402    0.89308   1.00
H2       0.49668    0.68568    0.90601   1.00
H2       0.51665    0.72328    0.87795   1.00
H2       0.37203    0.68188    0.99245   1.00
H2       0.33535    0.68309    1.02813   1.00
H2       0.38335    0.69548    1.04080   1.00
H2       0.31859    0.61625    1.00417   1.00
H2       0.35935    0.61074    0.97378   1.00
H2       0.34949    0.57622    1.01073   1.00
H2       0.46442    0.51702    1.05161   1.00
H2       0.48537    0.55935    1.03176   1.00
H2       0.47896    0.55535    1.08282   1.00
H2       0.36854    0.55916    1.08260   1.00
H2       0.39779    0.51712    1.08121   1.00
H2       0.41056    0.55585    1.11261   1.00
H2       0.44427    0.70156    1.07053   1.00
H2       0.47163    0.68881    1.11239   1.00
H2       0.48689    0.67334    1.06617   1.00
H2       0.42013    0.65544    1.14810   1.00
H2       0.38658    0.67122    1.11236   1.00
H2       0.38862    0.62157    1.12630   1.00
C4       0.14416    0.41384    0.91781   1.00
C4       0.18588    0.41355    0.91715   1.00
C3       0.12136    0.38557    0.93776   1.00
C3       0.20884    0.38306    0.93331   1.00
C3       0.12377    0.44359    0.89698   1.00
C3       0.20614    0.44538    0.89951   1.00
C2       0.05988    0.41534    0.91615   1.00
C2       0.27012    0.41466    0.91385   1.00
C3       0.08038    0.38614    0.93678   1.00
C3       0.24981    0.38376    0.93204   1.00
C3       0.08242    0.44409    0.89696   1.00
C3       0.24738    0.44471    0.89706   1.00
H1       0.13385    0.36381    0.95369   1.00
H1       0.19648    0.35934    0.94626   1.00
C5       0.14480    0.47275    0.87644   1.00
C5       0.18520    0.47755    0.88411   1.00
H1       0.06545    0.36477    0.95152   1.00
H1       0.26490    0.36108    0.94450   1.00
H1       0.06820    0.46623    0.88279   1.00
H1       0.26132    0.46647    0.88216   1.00
O3       0.12539    0.49734    0.85123   1.00
O3       0.20401    0.51179    0.87406   1.00
Si1      0.12253    0.48638    0.80494   1.00
Si1      0.21221    0.54429    0.90788   1.00
C6       0.08962    0.52369    0.79157   1.00
C6       0.16902    0.49425    0.78436   1.00
C6       0.10247    0.43972    0.79625   1.00
C6       0.19807    0.53331    0.95626   1.00
C6       0.26302    0.55052    0.90595   1.00
C6       0.19023    0.58814    0.89248   1.00
C6       0.05306    0.52870    0.81862   1.00
H2       0.10709    0.54996    0.79605   1.00
C6       0.07353    0.52677    0.74879   1.00
H2       0.18142    0.51585    0.80419   1.00
C6       0.19866    0.45953    0.78376   1.00
C6       0.17164    0.51288    0.74274   1.00
H2       0.07669    0.43990    0.81504   1.00
C6       0.08728    0.43099    0.75401   1.00
C6       0.12651    0.40230    0.80748   1.00
C6       0.15429    0.52304    0.96403   1.00
C6       0.22275    0.50366    0.98079   1.00
H2       0.20288    0.56106    0.97114   1.00
H2       0.27449    0.52317    0.91753   1.00
C6       0.28122    0.55459    0.86422   1.00
C6       0.28107    0.58386    0.93134   1.00
H2       0.21125    0.60054    0.87200   1.00
C6       0.15164    0.58411    0.86873   1.00
C6       0.18256    0.62052    0.92381   1.00
H2       0.06154    0.53314    0.84903   1.00
H2       0.03410    0.50309    0.81730   1.00
H2       0.03583    0.55418    0.81014   1.00
H2       0.06892    0.55738    0.74104   1.00
H2       0.09322    0.51437    0.72724   1.00
H2       0.04536    0.51225    0.74539   1.00
H2       0.22828    0.47006    0.77823   1.00
H2       0.19968    0.44421    0.81155   1.00
H2       0.19148    0.43863    0.76082   1.00
H2       0.15638    0.54080    0.74151   1.00
H2       0.20192    0.51895    0.73463   1.00
H2       0.15950    0.49339    0.72063   1.00
H2       0.10986    0.43670    0.73226   1.00
H2       0.07792    0.40064    0.75065   1.00
H2       0.06168    0.44837    0.74713   1.00
H2       0.14598    0.39308    0.78401   1.00
H2       0.14432    0.40601    0.83332   1.00
H2       0.10672    0.37795    0.81335   1.00
H2       0.14812    0.49245    0.95797   1.00
H2       0.14691    0.52813    0.99465   1.00
H2       0.13452    0.54080    0.94665   1.00
H2       0.21375    0.50417    1.01141   1.00
H2       0.21926    0.47378    0.97065   1.00
H2       0.25378    0.51073    0.98051   1.00
H2       0.31298    0.55161    0.86558   1.00
H2       0.27065    0.53176    0.84463   1.00
H2       0.27465    0.58282    0.85104   1.00
H2       0.27084    0.58260    0.96146   1.00
H2       0.31288    0.58121    0.93221   1.00
H2       0.27415    0.61261    0.91944   1.00
H2       0.12844    0.57053    0.88573   1.00
H2       0.14119    0.61239    0.85837   1.00
H2       0.15666    0.56617    0.84311   1.00
H2       0.17456    0.64810    0.90987   1.00
H2       0.15878    0.61236    0.94342   1.00
H2       0.20843    0.62630    0.94138   1.00
C4       0.68584    0.41384    0.91219   1.00
C4       0.64412    0.41355    0.91285   1.00
C3       0.70864    0.38557    0.89224   1.00
C3       0.62116    0.38306    0.89669   1.00
C3       0.70623    0.44359    0.93302   1.00
C3       0.62386    0.44538    0.93049   1.00
C2       0.77012    0.41534    0.91385   1.00
C2       0.55988    0.41466    0.91615   1.00
C3       0.74962    0.38614    0.89322   1.00
C3       0.58019    0.38376    0.89796   1.00
C3       0.74758    0.44409    0.93304   1.00
C3       0.58262    0.44471    0.93294   1.00
H1       0.69615    0.36381    0.87631   1.00
H1       0.63352    0.35934    0.88374   1.00
C5       0.68520    0.47275    0.95356   1.00
C5       0.64480    0.47755    0.94589   1.00
H1       0.76455    0.36477    0.87848   1.00
H1       0.56510    0.36108    0.88550   1.00
H1       0.76180    0.46623    0.94721   1.00
H1       0.56868    0.46647    0.94784   1.00
O3       0.70461    0.49734    0.97877   1.00
O3       0.62599    0.51179    0.95594   1.00
Si1      0.70747    0.48638    1.02506   1.00
Si1      0.61779    0.54429    0.92212   1.00
C6       0.74038    0.52369    1.03843   1.00
C6       0.66098    0.49425    1.04564   1.00
C6       0.72753    0.43972    1.03375   1.00
C6       0.63193    0.53331    0.87374   1.00
C6       0.56698    0.55052    0.92405   1.00
C6       0.63977    0.58814    0.93752   1.00
C6       0.77694    0.52870    1.01138   1.00
H2       0.72291    0.54996    1.03395   1.00
C6       0.75647    0.52677    1.08121   1.00
H2       0.64858    0.51585    1.02581   1.00
C6       0.63134    0.45953    1.04624   1.00
C6       0.65836    0.51288    1.08726   1.00
H2       0.75331    0.43990    1.01496   1.00
C6       0.74272    0.43099    1.07599   1.00
C6       0.70349    0.40230    1.02252   1.00
C6       0.67571    0.52304    0.86597   1.00
C6       0.60725    0.50366    0.84921   1.00
H2       0.62712    0.56106    0.85886   1.00
H2       0.55551    0.52317    0.91247   1.00
C6       0.54878    0.55459    0.96578   1.00
C6       0.54893    0.58386    0.89866   1.00
H2       0.61875    0.60054    0.95800   1.00
C6       0.67836    0.58411    0.96127   1.00
C6       0.64744    0.62052    0.90619   1.00
H2       0.76846    0.53314    0.98097   1.00
H2       0.79590    0.50309    1.01270   1.00
H2       0.79417    0.55418    1.01986   1.00
H2       0.76108    0.55738    1.08896   1.00
H2       0.73678    0.51437    1.10276   1.00
H2       0.78464    0.51225    1.08461   1.00
H2       0.60172    0.47006    1.05177   1.00
H2       0.63032    0.44421    1.01845   1.00
H2       0.63852    0.43863    1.06918   1.00
H2       0.67362    0.54080    1.08849   1.00
H2       0.62808    0.51895    1.09537   1.00
H2       0.67050    0.49339    1.10937   1.00
H2       0.72014    0.43670    1.09774   1.00
H2       0.75208    0.40064    1.07935   1.00
H2       0.76832    0.44837    1.08287   1.00
H2       0.68402    0.39308    1.04599   1.00
H2       0.68568    0.40601    0.99668   1.00
H2       0.72328    0.37795    1.01665   1.00
H2       0.68188    0.49245    0.87203   1.00
H2       0.68309    0.52813    0.83535   1.00
H2       0.69548    0.54080    0.88335   1.00
H2       0.61625    0.50417    0.81859   1.00
H2       0.61074    0.47378    0.85935   1.00
H2       0.57622    0.51073    0.84949   1.00
H2       0.51702    0.55161    0.96442   1.00
H2       0.55935    0.53176    0.98537   1.00
H2       0.55535    0.58282    0.97896   1.00
H2       0.55916    0.58260    0.86854   1.00
H2       0.51712    0.58121    0.89779   1.00
H2       0.55585    0.61261    0.91056   1.00
H2       0.70156    0.57053    0.94427   1.00
H2       0.68881    0.61239    0.97163   1.00
H2       0.67334    0.56617    0.98689   1.00
H2       0.65544    0.64810    0.92013   1.00
H2       0.67122    0.61236    0.88658   1.00
H2       0.62157    0.62630    0.88862   1.00
C4       0.41781    0.14416    0.91384   1.00
C4       0.41715    0.18588    0.91355   1.00
C3       0.43776    0.12136    0.88557   1.00
C3       0.43331    0.20884    0.88306   1.00
C3       0.39698    0.12377    0.94359   1.00
C3       0.39951    0.20614    0.94538   1.00
C2       0.41615    0.05988    0.91534   1.00
C2       0.41385    0.27012    0.91466   1.00
C3       0.43678    0.08038    0.88614   1.00
C3       0.43204    0.24981    0.88376   1.00
C3       0.39696    0.08242    0.94409   1.00
C3       0.39706    0.24738    0.94471   1.00
H1       0.45369    0.13385    0.86381   1.00
H1       0.44626    0.19648    0.85934   1.00
C5       0.37644    0.14480    0.97275   1.00
C5       0.38411    0.18520    0.97755   1.00
H1       0.45152    0.06545    0.86477   1.00
H1       0.44450    0.26490    0.86108   1.00
H1       0.38279    0.06820    0.96623   1.00
H1       0.38216    0.26132    0.96647   1.00
O3       0.35123    0.12539    0.99734   1.00
O3       0.37406    0.20401    1.01179   1.00
Si1      0.30494    0.12253    0.98638   1.00
Si1      0.40788    0.21221    1.04429   1.00
C6       0.29157    0.08962    1.02369   1.00
C6       0.28436    0.16902    0.99425   1.00
C6       0.29625    0.10247    0.93972   1.00
C6       0.45626    0.19807    1.03331   1.00
C6       0.40595    0.26302    1.05052   1.00
C6       0.39248    0.19023    1.08814   1.00
C6       0.31862    0.05306    1.02870   1.00
H2       0.29605    0.10709    1.04996   1.00
C6       0.24879    0.07353    1.02677   1.00
H2       0.30419    0.18142    1.01585   1.00
C6       0.28376    0.19866    0.95953   1.00
C6       0.24274    0.17164    1.01288   1.00
H2       0.31504    0.07669    0.93990   1.00
C6       0.25401    0.08728    0.93099   1.00
C6       0.30748    0.12651    0.90230   1.00
C6       0.46403    0.15429    1.02304   1.00
C6       0.48079    0.22275    1.00366   1.00
H2       0.47114    0.20288    1.06106   1.00
H2       0.41753    0.27449    1.02317   1.00
C6       0.36422    0.28122    1.05459   1.00
C6       0.43134    0.28107    1.08386   1.00
H2       0.37200    0.21125    1.10054   1.00
C6       0.36873    0.15164    1.08411   1.00
C6       0.42381    0.18256    1.12052   1.00
H2       0.34903    0.06154    1.03314   1.00
H2       0.31730    0.03410    1.00309   1.00
H2       0.31014    0.03583    1.05418   1.00
H2       0.24104    0.06892    1.05738   1.00
H2       0.22724    0.09322    1.01437   1.00
H2       0.24539    0.04536    1.01225   1.00
H2       0.27823    0.22828    0.97006   1.00
H2       0.31155    0.19968    0.94421   1.00
H2       0.26082    0.19148    0.93863   1.00
H2       0.24151    0.15638    1.04080   1.00
H2       0.23463    0.20192    1.01895   1.00
H2       0.22063    0.15950    0.99339   1.00
H2       0.23226    0.10986    0.93670   1.00
H2       0.25065    0.07792    0.90064   1.00
H2       0.24713    0.06168    0.94837   1.00
H2       0.28401    0.14598    0.89308   1.00
H2       0.33332    0.14432    0.90601   1.00
H2       0.31335    0.10672    0.87795   1.00
H2       0.45797    0.14812    0.99245   1.00
H2       0.49465    0.14691    1.02813   1.00
H2       0.44665    0.13452    1.04080   1.00
H2       0.51141    0.21375    1.00417   1.00
H2       0.47065    0.21926    0.97378   1.00
H2       0.48051    0.25378    1.01073   1.00
H2       0.36558    0.31298    1.05161   1.00
H2       0.34463    0.27065    1.03176   1.00
H2       0.35104    0.27465    1.08282   1.00
H2       0.46146    0.27084    1.08260   1.00
H2       0.43221    0.31288    1.08121   1.00
H2       0.41944    0.27415    1.11261   1.00
H2       0.38573    0.12844    1.07053   1.00
H2       0.35837    0.14119    1.11239   1.00
H2       0.34311    0.15666    1.06617   1.00
H2       0.40987    0.17456    1.14810   1.00
H2       0.44342    0.15878    1.11236   1.00
H2       0.44138    0.20843    1.12630   1.00
C4       0.41384    0.41781    0.64416   1.00
C4       0.41355    0.41715    0.68588   1.00
C3       0.38557    0.43776    0.62136   1.00
C3       0.38306    0.43331    0.70884   1.00
C3       0.44359    0.39698    0.62377   1.00
C3       0.44538    0.39951    0.70614   1.00
C2       0.41534    0.41615    0.55988   1.00
C2       0.41466    0.41385    0.77012   1.00
C3       0.38614    0.43678    0.58038   1.00
C3       0.38376    0.43204    0.74981   1.00
C3       0.44409    0.39696    0.58242   1.00
C3       0.44471    0.39706    0.74738   1.00
H1       0.36381    0.45369    0.63385   1.00
H1       0.35934    0.44626    0.69648   1.00
C5       0.47275    0.37644    0.64480   1.00
C5       0.47755    0.38411    0.68520   1.00
H1       0.36477    0.45152    0.56545   1.00
H1       0.36108    0.44450    0.76490   1.00
H1       0.46623    0.38279    0.56820   1.00
H1       0.46647    0.38216    0.76132   1.00
O3       0.49734    0.35123    0.62539   1.00
O3       0.51179    0.37406    0.70401   1.00
Si1      0.48638    0.30494    0.62253   1.00
Si1      0.54429    0.40788    0.71221   1.00
C6       0.52369    0.29157    0.58962   1.00
C6       0.49425    0.28436    0.66902   1.00
C6       0.43972    0.29625    0.60247   1.00
C6       0.53331    0.45626    0.69807   1.00
C6       0.55052    0.40595    0.76302   1.00
C6       0.58814    0.39248    0.69023   1.00
C6       0.52870    0.31862    0.55306   1.00
H2       0.54996    0.29605    0.60709   1.00
C6       0.52677    0.24879    0.57353   1.00
H2       0.51585    0.30419    0.68142   1.00
C6       0.45953    0.28376    0.69866   1.00
C6       0.51288    0.24274    0.67164   1.00
H2       0.43990    0.31504    0.57669   1.00
C6       0.43099    0.25401    0.58728   1.00
C6       0.40230    0.30748    0.62651   1.00
C6       0.52304    0.46403    0.65429   1.00
C6       0.50366    0.48079    0.72275   1.00
H2       0.56106    0.47114    0.70288   1.00
H2       0.52317    0.41753    0.77449   1.00
C6       0.55459    0.36422    0.78122   1.00
C6       0.58386    0.43134    0.78107   1.00
H2       0.60054    0.37200    0.71125   1.00
C6       0.58411    0.36873    0.65164   1.00
C6       0.62052    0.42381    0.68256   1.00
H2       0.53314    0.34903    0.56154   1.00
H2       0.50309    0.31730    0.53410   1.00
H2       0.55418    0.31014    0.53583   1.00
H2       0.55738    0.24104    0.56892   1.00
H2       0.51437    0.22724    0.59322   1.00
H2       0.51225    0.24539    0.54536   1.00
H2       0.47006    0.27823    0.72828   1.00
H2       0.44421    0.31155    0.69968   1.00
H2       0.43863    0.26082    0.69148   1.00
H2       0.54080    0.24151    0.65638   1.00
H2       0.51895    0.23463    0.70192   1.00
H2       0.49339    0.22063    0.65950   1.00
H2       0.43670    0.23226    0.60986   1.00
H2       0.40064    0.25065    0.57792   1.00
H2       0.44837    0.24713    0.56168   1.00
H2       0.39308    0.28401    0.64598   1.00
H2       0.40601    0.33332    0.64432   1.00
H2       0.37795    0.31335    0.60672   1.00
H2       0.49245    0.45797    0.64812   1.00
H2       0.52813    0.49465    0.64691   1.00
H2       0.54080    0.44665    0.63452   1.00
H2       0.50417    0.51141    0.71375   1.00
H2       0.47378    0.47065    0.71926   1.00
H2       0.51073    0.48051    0.75378   1.00
H2       0.55161    0.36558    0.81298   1.00
H2       0.53176    0.34463    0.77065   1.00
H2       0.58282    0.35104    0.77465   1.00
H2       0.58260    0.46146    0.77084   1.00
H2       0.58121    0.43221    0.81288   1.00
H2       0.61261    0.41944    0.77415   1.00
H2       0.57053    0.38573    0.62844   1.00
H2       0.61239    0.35837    0.64119   1.00
H2       0.56617    0.34311    0.65666   1.00
H2       0.64810    0.40987    0.67456   1.00
H2       0.61236    0.44342    0.65878   1.00
H2       0.62630    0.44138    0.70843   1.00
C4       0.41384    0.91219    0.68584   1.00
C4       0.41355    0.91285    0.64412   1.00
C3       0.38557    0.89224    0.70864   1.00
C3       0.38306    0.89669    0.62116   1.00
C3       0.44359    0.93302    0.70623   1.00
C3       0.44538    0.93049    0.62386   1.00
C2       0.41534    0.91385    0.77012   1.00
C2       0.41466    0.91615    0.55988   1.00
C3       0.38614    0.89322    0.74962   1.00
C3       0.38376    0.89796    0.58019   1.00
C3       0.44409    0.93304    0.74758   1.00
C3       0.44471    0.93294    0.58262   1.00
H1       0.36381    0.87631    0.69615   1.00
H1       0.35934    0.88374    0.63352   1.00
C5       0.47275    0.95356    0.68520   1.00
C5       0.47755    0.94589    0.64480   1.00
H1       0.36477    0.87848    0.76455   1.00
H1       0.36108    0.88550    0.56510   1.00
H1       0.46623    0.94721    0.76180   1.00
H1       0.46647    0.94784    0.56868   1.00
O3       0.49734    0.97877    0.70461   1.00
O3       0.51179    0.95594    0.62599   1.00
Si1      0.48638    1.02506    0.70747   1.00
Si1      0.54429    0.92212    0.61779   1.00
C6       0.52369    1.03843    0.74038   1.00
C6       0.49425    1.04564    0.66098   1.00
C6       0.43972    1.03375    0.72753   1.00
C6       0.53331    0.87374    0.63193   1.00
C6       0.55052    0.92405    0.56698   1.00
C6       0.58814    0.93752    0.63977   1.00
C6       0.52870    1.01138    0.77694   1.00
H2       0.54996    1.03395    0.72291   1.00
C6       0.52677    1.08121    0.75647   1.00
H2       0.51585    1.02581    0.64858   1.00
C6       0.45953    1.04624    0.63134   1.00
C6       0.51288    1.08726    0.65836   1.00
H2       0.43990    1.01496    0.75331   1.00
C6       0.43099    1.07599    0.74272   1.00
C6       0.40230    1.02252    0.70349   1.00
C6       0.52304    0.86597    0.67571   1.00
C6       0.50366    0.84921    0.60725   1.00
H2       0.56106    0.85886    0.62712   1.00
H2       0.52317    0.91247    0.55551   1.00
C6       0.55459    0.96578    0.54878   1.00
C6       0.58386    0.89866    0.54893   1.00
H2       0.60054    0.95800    0.61875   1.00
C6       0.58411    0.96127    0.67836   1.00
C6       0.62052    0.90619    0.64744   1.00
H2       0.53314    0.98097    0.76846   1.00
H2       0.50309    1.01270    0.79590   1.00
H2       0.55418    1.01986    0.79417   1.00
H2       0.55738    1.08896    0.76108   1.00
H2       0.51437    1.10276    0.73678   1.00
H2       0.51225    1.08461    0.78464   1.00
H2       0.47006    1.05177    0.60172   1.00
H2       0.44421    1.01845    0.63032   1.00
H2       0.43863    1.06918    0.63852   1.00
H2       0.54080    1.08849    0.67362   1.00
H2       0.51895    1.09537    0.62808   1.00
H2       0.49339    1.10937    0.67050   1.00
H2       0.43670    1.09774    0.72014   1.00
H2       0.40064    1.07935    0.75208   1.00
H2       0.44837    1.08287    0.76832   1.00
H2       0.39308    1.04599    0.68402   1.00
H2       0.40601    0.99668    0.68568   1.00
H2       0.37795    1.01665    0.72328   1.00
H2       0.49245    0.87203    0.68188   1.00
H2       0.52813    0.83535    0.68309   1.00
H2       0.54080    0.88335    0.69548   1.00
H2       0.50417    0.81859    0.61625   1.00
H2       0.47378    0.85935    0.61074   1.00
H2       0.51073    0.84949    0.57622   1.00
H2       0.55161    0.96442    0.51702   1.00
H2       0.53176    0.98537    0.55935   1.00
H2       0.58282    0.97896    0.55535   1.00
H2       0.58260    0.86854    0.55916   1.00
H2       0.58121    0.89779    0.51712   1.00
H2       0.61261    0.91056    0.55585   1.00
H2       0.57053    0.94427    0.70156   1.00
H2       0.61239    0.97163    0.68881   1.00
H2       0.56617    0.98689    0.67334   1.00
H2       0.64810    0.92013    0.65544   1.00
H2       0.61236    0.88658    0.67122   1.00
H2       0.62630    0.88862    0.62157   1.00
C4       0.41219    1.18584    0.41384   1.00
C4       0.41285    1.14412    0.41355   1.00
C3       0.39224    1.20864    0.38557   1.00
C3       0.39669    1.12116    0.38306   1.00
C3       0.43302    1.20623    0.44359   1.00
C3       0.43049    1.12386    0.44538   1.00
C2       0.41385    1.27012    0.41534   1.00
C2       0.41615    1.05988    0.41466   1.00
C3       0.39322    1.24962    0.38614   1.00
C3       0.39796    1.08019    0.38376   1.00
C3       0.43304    1.24758    0.44409   1.00
C3       0.43294    1.08262    0.44471   1.00
H1       0.37631    1.19615    0.36381   1.00
H1       0.38374    1.13352    0.35934   1.00
C5       0.45356    1.18520    0.47275   1.00
C5       0.44589    1.14480    0.47755   1.00
H1       0.37848    1.26455    0.36477   1.00
H1       0.38550    1.06510    0.36108   1.00
H1       0.44721    1.26180    0.46623   1.00
H1       0.44784    1.06868    0.46647   1.00
O3       0.47877    1.20461    0.49734   1.00
O3       0.45594    1.12599    0.51179   1.00
Si1      0.52506    1.20747    0.48638   1.00
Si1      0.42212    1.11779    0.54429   1.00
C6       0.53843    1.24038    0.52369   1.00
C6       0.54564    1.16098    0.49425   1.00
C6       0.53375    1.22753    0.43972   1.00
C6       0.37374    1.13193    0.53331   1.00
C6       0.42405    1.06698    0.55052   1.00
C6       0.43752    1.13977    0.58814   1.00
C6       0.51138    1.27694    0.52870   1.00
H2       0.53395    1.22291    0.54996   1.00
C6       0.58121    1.25647    0.52677   1.00
H2       0.52581    1.14858    0.51585   1.00
C6       0.54624    1.13134    0.45953   1.00
C6       0.58726    1.15836    0.51288   1.00
H2       0.51496    1.25331    0.43990   1.00
C6       0.57599    1.24272    0.43099   1.00
C6       0.52252    1.20349    0.40230   1.00
C6       0.36597    1.17571    0.52304   1.00
C6       0.34921    1.10725    0.50366   1.00
H2       0.35886    1.12712    0.56106   1.00
H2       0.41247    1.05551    0.52317   1.00
C6       0.46578    1.04878    0.55459   1.00
C6       0.39866    1.04893    0.58386   1.00
H2       0.45800    1.11875    0.60054   1.00
C6       0.46127    1.17836    0.58411   1.00
C6       0.40619    1.14744    0.62052   1.00
H2       0.48097    1.26846    0.53314   1.00
H2       0.51270    1.29590    0.50309   1.00
H2       0.51986    1.29417    0.55418   1.00
H2       0.58896    1.26108    0.55738   1.00
H2       0.60276    1.23678    0.51437   1.00
H2       0.58461    1.28464    0.51225   1.00
H2       0.55177    1.10172    0.47006   1.00
H2       0.51845    1.13032    0.44421   1.00
H2       0.56918    1.13852    0.43863   1.00
H2       0.58849    1.17362    0.54080   1.00
H2       0.59537    1.12808    0.51895   1.00
H2       0.60937    1.17050    0.49339   1.00
H2       0.59774    1.22014    0.43670   1.00
H2       0.57935    1.25208    0.40064   1.00
H2       0.58287    1.26832    0.44837   1.00
H2       0.54599    1.18402    0.39308   1.00
H2       0.49668    1.18568    0.40601   1.00
H2       0.51665    1.22328    0.37795   1.00
H2       0.37203    1.18188    0.49245   1.00
H2       0.33535    1.18309    0.52813   1.00
H2       0.38335    1.19548    0.54080   1.00
H2       0.31859    1.11625    0.50417   1.00
H2       0.35935    1.11074    0.47378   1.00
H2       0.34949    1.07622    0.51073   1.00
H2       0.46442    1.01702    0.55161   1.00
H2       0.48537    1.05935    0.53176   1.00
H2       0.47896    1.05535    0.58282   1.00
H2       0.36854    1.05916    0.58260   1.00
H2       0.39779    1.01712    0.58121   1.00
H2       0.41056    1.05585    0.61261   1.00
H2       0.44427    1.20156    0.57053   1.00
H2       0.47163    1.18881    0.61239   1.00
H2       0.48689    1.17334    0.56617   1.00
H2       0.42013    1.15544    0.64810   1.00
H2       0.38658    1.17122    0.61236   1.00
H2       0.38862    1.12157    0.62630   1.00
C4       0.14416    0.91384    0.41781   1.00
C4       0.18588    0.91355    0.41715   1.00
C3       0.12136    0.88557    0.43776   1.00
C3       0.20884    0.88306    0.43331   1.00
C3       0.12377    0.94359    0.39698   1.00
C3       0.20614    0.94538    0.39951   1.00
C2       0.05988    0.91534    0.41615   1.00
C2       0.27012    0.91466    0.41385   1.00
C3       0.08038    0.88614    0.43678   1.00
C3       0.24981    0.88376    0.43204   1.00
C3       0.08242    0.94409    0.39696   1.00
C3       0.24738    0.94471    0.39706   1.00
H1       0.13385    0.86381    0.45369   1.00
H1       0.19648    0.85934    0.44626   1.00
C5       0.14480    0.97275    0.37644   1.00
C5       0.18520    0.97755    0.38411   1.00
H1       0.06545    0.86477    0.45152   1.00
H1       0.26490    0.86108    0.44450   1.00
H1       0.06820    0.96623    0.38279   1.00
H1       0.26132    0.96647    0.38216   1.00
O3       0.12539    0.99734    0.35123   1.00
O3       0.20401    1.01179    0.37406   1.00
Si1      0.12253    0.98638    0.30494   1.00
Si1      0.21221    1.04429    0.40788   1.00
C6       0.08962    1.02369    0.29157   1.00
C6       0.16902    0.99425    0.28436   1.00
C6       0.10247    0.93972    0.29625   1.00
C6       0.19807    1.03331    0.45626   1.00
C6       0.26302    1.05052    0.40595   1.00
C6       0.19023    1.08814    0.39248   1.00
C6       0.05306    1.02870    0.31862   1.00
H2       0.10709    1.04996    0.29605   1.00
C6       0.07353    1.02677    0.24879   1.00
H2       0.18142    1.01585    0.30419   1.00
C6       0.19866    0.95953    0.28376   1.00
C6       0.17164    1.01288    0.24274   1.00
H2       0.07669    0.93990    0.31504   1.00
C6       0.08728    0.93099    0.25401   1.00
C6       0.12651    0.90230    0.30748   1.00
C6       0.15429    1.02304    0.46403   1.00
C6       0.22275    1.00366    0.48079   1.00
H2       0.20288    1.06106    0.47114   1.00
H2       0.27449    1.02317    0.41753   1.00
C6       0.28122    1.05459    0.36422   1.00
C6       0.28107    1.08386    0.43134   1.00
H2       0.21125    1.10054    0.37200   1.00
C6       0.15164    1.08411    0.36873   1.00
C6       0.18256    1.12052    0.42381   1.00
H2       0.06154    1.03314    0.34903   1.00
H2       0.03410    1.00309    0.31730   1.00
H2       0.03583    1.05418    0.31014   1.00
H2       0.06892    1.05738    0.24104   1.00
H2       0.09322    1.01437    0.22724   1.00
H2       0.04536    1.01225    0.24539   1.00
H2       0.22828    0.97006    0.27823   1.00
H2       0.19968    0.94421    0.31155   1.00
H2       0.19148    0.93863    0.26082   1.00
H2       0.15638    1.04080    0.24151   1.00
H2       0.20192    1.01895    0.23463   1.00
H2       0.15950    0.99339    0.22063   1.00
H2       0.10986    0.93670    0.23226   1.00
H2       0.07792    0.90064    0.25065   1.00
H2       0.06168    0.94837    0.24713   1.00
H2       0.14598    0.89308    0.28401   1.00
H2       0.14432    0.90601    0.33332   1.00
H2       0.10672    0.87795    0.31335   1.00
H2       0.14812    0.99245    0.45797   1.00
H2       0.14691    1.02813    0.49465   1.00
H2       0.13452    1.04080    0.44665   1.00
H2       0.21375    1.00417    0.51141   1.00
H2       0.21926    0.97378    0.47065   1.00
H2       0.25378    1.01073    0.48051   1.00
H2       0.31298    1.05161    0.36558   1.00
H2       0.27065    1.03176    0.34463   1.00
H2       0.27465    1.08282    0.35104   1.00
H2       0.27084    1.08260    0.46146   1.00
H2       0.31288    1.08121    0.43221   1.00
H2       0.27415    1.11261    0.41944   1.00
H2       0.12844    1.07053    0.38573   1.00
H2       0.14119    1.11239    0.35837   1.00
H2       0.15666    1.06617    0.34311   1.00
H2       0.17456    1.14810    0.40987   1.00
H2       0.15878    1.11236    0.44342   1.00
H2       0.20843    1.12630    0.44138   1.00
C4       0.68584    0.91384    0.41219   1.00
C4       0.64412    0.91355    0.41285   1.00
C3       0.70864    0.88557    0.39224   1.00
C3       0.62116    0.88306    0.39669   1.00
C3       0.70623    0.94359    0.43302   1.00
C3       0.62386    0.94538    0.43049   1.00
C2       0.77012    0.91534    0.41385   1.00
C2       0.55988    0.91466    0.41615   1.00
C3       0.74962    0.88614    0.39322   1.00
C3       0.58019    0.88376    0.39796   1.00
C3       0.74758    0.94409    0.43304   1.00
C3       0.58262    0.94471    0.43294   1.00
H1       0.69615    0.86381    0.37631   1.00
H1       0.63352    0.85934    0.38374   1.00
C5       0.68520    0.97275    0.45356   1.00
C5       0.64480    0.97755    0.44589   1.00
H1       0.76455    0.86477    0.37848   1.00
H1       0.56510    0.86108    0.38550   1.00
H1       0.76180    0.96623    0.44721   1.00
H1       0.56868    0.96647    0.44784   1.00
O3       0.70461    0.99734    0.47877   1.00
O3       0.62599    1.01179    0.45594   1.00
Si1      0.70747    0.98638    0.52506   1.00
Si1      0.61779    1.04429    0.42212   1.00
C6       0.74038    1.02369    0.53843   1.00
C6       0.66098    0.99425    0.54564   1.00
C6       0.72753    0.93972    0.53375   1.00
C6       0.63193    1.03331    0.37374   1.00
C6       0.56698    1.05052    0.42405   1.00
C6       0.63977    1.08814    0.43752   1.00
C6       0.77694    1.02870    0.51138   1.00
H2       0.72291    1.04996    0.53395   1.00
C6       0.75647    1.02677    0.58121   1.00
H2       0.64858    1.01585    0.52581   1.00
C6       0.63134    0.95953    0.54624   1.00
C6       0.65836    1.01288    0.58726   1.00
H2       0.75331    0.93990    0.51496   1.00
C6       0.74272    0.93099    0.57599   1.00
C6       0.70349    0.90230    0.52252   1.00
C6       0.67571    1.02304    0.36597   1.00
C6       0.60725    1.00366    0.34921   1.00
H2       0.62712    1.06106    0.35886   1.00
H2       0.55551    1.02317    0.41247   1.00
C6       0.54878    1.05459    0.46578   1.00
C6       0.54893    1.08386    0.39866   1.00
H2       0.61875    1.10054    0.45800   1.00
C6       0.67836    1.08411    0.46127   1.00
C6       0.64744    1.12052    0.40619   1.00
H2       0.76846    1.03314    0.48097   1.00
H2       0.79590    1.00309    0.51270   1.00
H2       0.79417    1.05418    0.51986   1.00
H2       0.76108    1.05738    0.58896   1.00
H2       0.73678    1.01437    0.60276   1.00
H2       0.78464    1.01225    0.58461   1.00
H2       0.60172    0.97006    0.55177   1.00
H2       0.63032    0.94421    0.51845   1.00
H2       0.63852    0.93863    0.56918   1.00
H2       0.67362    1.04080    0.58849   1.00
H2       0.62808    1.01895    0.59537   1.00
H2       0.67050    0.99339    0.60937   1.00
H2       0.72014    0.93670    0.59774   1.00
H2       0.75208    0.90064    0.57935   1.00
H2       0.76832    0.94837    0.58287   1.00
H2       0.68402    0.89308    0.54599   1.00
H2       0.68568    0.90601    0.49668   1.00
H2       0.72328    0.87795    0.51665   1.00
H2       0.68188    0.99245    0.37203   1.00
H2       0.68309    1.02813    0.33535   1.00
H2       0.69548    1.04080    0.38335   1.00
H2       0.61625    1.00417    0.31859   1.00
H2       0.61074    0.97378    0.35935   1.00
H2       0.57622    1.01073    0.34949   1.00
H2       0.51702    1.05161    0.46442   1.00
H2       0.55935    1.03176    0.48537   1.00
H2       0.55535    1.08282    0.47896   1.00
H2       0.55916    1.08260    0.36854   1.00
H2       0.51712    1.08121    0.39779   1.00
H2       0.55585    1.11261    0.41056   1.00
H2       0.70156    1.07053    0.44427   1.00
H2       0.68881    1.11239    0.47163   1.00
H2       0.67334    1.06617    0.48689   1.00
H2       0.65544    1.14810    0.42013   1.00
H2       0.67122    1.11236    0.38658   1.00
H2       0.62157    1.12630    0.38862   1.00
C4       0.41781    0.64416    0.41384   1.00
C4       0.41715    0.68588    0.41355   1.00
C3       0.43776    0.62136    0.38557   1.00
C3       0.43331    0.70884    0.38306   1.00
C3       0.39698    0.62377    0.44359   1.00
C3       0.39951    0.70614    0.44538   1.00
C2       0.41615    0.55988    0.41534   1.00
C2       0.41385    0.77012    0.41466   1.00
C3       0.43678    0.58038    0.38614   1.00
C3       0.43204    0.74981    0.38376   1.00
C3       0.39696    0.58242    0.44409   1.00
C3       0.39706    0.74738    0.44471   1.00
H1       0.45369    0.63385    0.36381   1.00
H1       0.44626    0.69648    0.35934   1.00
C5       0.37644    0.64480    0.47275   1.00
C5       0.38411    0.68520    0.47755   1.00
H1       0.45152    0.56545    0.36477   1.00
H1       0.44450    0.76490    0.36108   1.00
H1       0.38279    0.56820    0.46623   1.00
H1       0.38216    0.76132    0.46647   1.00
O3       0.35123    0.62539    0.49734   1.00
O3       0.37406    0.70401    0.51179   1.00
Si1      0.30494    0.62253    0.48638   1.00
Si1      0.40788    0.71221    0.54429   1.00
C6       0.29157    0.58962    0.52369   1.00
C6       0.28436    0.66902    0.49425   1.00
C6       0.29625    0.60247    0.43972   1.00
C6       0.45626    0.69807    0.53331   1.00
C6       0.40595    0.76302    0.55052   1.00
C6       0.39248    0.69023    0.58814   1.00
C6       0.31862    0.55306    0.52870   1.00
H2       0.29605    0.60709    0.54996   1.00
C6       0.24879    0.57353    0.52677   1.00
H2       0.30419    0.68142    0.51585   1.00
C6       0.28376    0.69866    0.45953   1.00
C6       0.24274    0.67164    0.51288   1.00
H2       0.31504    0.57669    0.43990   1.00
C6       0.25401    0.58728    0.43099   1.00
C6       0.30748    0.62651    0.40230   1.00
C6       0.46403    0.65429    0.52304   1.00
C6       0.48079    0.72275    0.50366   1.00
H2       0.47114    0.70288    0.56106   1.00
H2       0.41753    0.77449    0.52317   1.00
C6       0.36422    0.78122    0.55459   1.00
C6       0.43134    0.78107    0.58386   1.00
H2       0.37200    0.71125    0.60054   1.00
C6       0.36873    0.65164    0.58411   1.00
C6       0.42381    0.68256    0.62052   1.00
H2       0.34903    0.56154    0.53314   1.00
H2       0.31730    0.53410    0.50309   1.00
H2       0.31014    0.53583    0.55418   1.00
H2       0.24104    0.56892    0.55738   1.00
H2       0.22724    0.59322    0.51437   1.00
H2       0.24539    0.54536    0.51225   1.00
H2       0.27823    0.72828    0.47006   1.00
H2       0.31155    0.69968    0.44421   1.00
H2       0.26082    0.69148    0.43863   1.00
H2       0.24151    0.65638    0.54080   1.00
H2       0.23463    0.70192    0.51895   1.00
H2       0.22063    0.65950    0.49339   1.00
H2       0.23226    0.60986    0.43670   1.00
H2       0.25065    0.57792    0.40064   1.00
H2       0.24713    0.56168    0.44837   1.00
H2       0.28401    0.64598    0.39308   1.00
H2       0.33332    0.64432    0.40601   1.00
H2       0.31335    0.60672    0.37795   1.00
H2       0.45797    0.64812    0.49245   1.00
H2       0.49465    0.64691    0.52813   1.00
H2       0.44665    0.63452    0.54080   1.00
H2       0.51141    0.71375    0.50417   1.00
H2       0.47065    0.71926    0.47378   1.00
H2       0.48051    0.75378    0.51073   1.00
H2       0.36558    0.81298    0.55161   1.00
H2       0.34463    0.77065    0.53176   1.00
H2       0.35104    0.77465    0.58282   1.00
H2       0.46146    0.77084    0.58260   1.00
H2       0.43221    0.81288    0.58121   1.00
H2       0.41944    0.77415    0.61261   1.00
H2       0.38573    0.62844    0.57053   1.00
H2       0.35837    0.64119    0.61239   1.00
H2       0.34311    0.65666    0.56617   1.00
H2       0.40987    0.67456    0.64810   1.00
H2       0.44342    0.65878    0.61236   1.00
H2       0.44138    0.70843    0.62630   1.00
C4       0.41384    0.91781    0.14416   1.00
C4       0.41355    0.91715    0.18588   1.00
C3       0.38557    0.93776    0.12136   1.00
C3       0.38306    0.93331    0.20884   1.00
C3       0.44359    0.89698    0.12377   1.00
C3       0.44538    0.89951    0.20614   1.00
C2       0.41534    0.91615    0.05988   1.00
C2       0.41466    0.91385    0.27012   1.00
C3       0.38614    0.93678    0.08038   1.00
C3       0.38376    0.93204    0.24981   1.00
C3       0.44409    0.89696    0.08242   1.00
C3       0.44471    0.89706    0.24738   1.00
H1       0.36381    0.95369    0.13385   1.00
H1       0.35934    0.94626    0.19648   1.00
C5       0.47275    0.87644    0.14480   1.00
C5       0.47755    0.88411    0.18520   1.00
H1       0.36477    0.95152    0.06545   1.00
H1       0.36108    0.94450    0.26490   1.00
H1       0.46623    0.88279    0.06820   1.00
H1       0.46647    0.88216    0.26132   1.00
O3       0.49734    0.85123    0.12539   1.00
O3       0.51179    0.87406    0.20401   1.00
Si1      0.48638    0.80494    0.12253   1.00
Si1      0.54429    0.90788    0.21221   1.00
C6       0.52369    0.79157    0.08962   1.00
C6       0.49425    0.78436    0.16902   1.00
C6       0.43972    0.79625    0.10247   1.00
C6       0.53331    0.95626    0.19807   1.00
C6       0.55052    0.90595    0.26302   1.00
C6       0.58814    0.89248    0.19023   1.00
C6       0.52870    0.81862    0.05306   1.00
H2       0.54996    0.79605    0.10709   1.00
C6       0.52677    0.74879    0.07353   1.00
H2       0.51585    0.80419    0.18142   1.00
C6       0.45953    0.78376    0.19866   1.00
C6       0.51288    0.74274    0.17164   1.00
H2       0.43990    0.81504    0.07669   1.00
C6       0.43099    0.75401    0.08728   1.00
C6       0.40230    0.80748    0.12651   1.00
C6       0.52304    0.96403    0.15429   1.00
C6       0.50366    0.98079    0.22275   1.00
H2       0.56106    0.97114    0.20288   1.00
H2       0.52317    0.91753    0.27449   1.00
C6       0.55459    0.86422    0.28122   1.00
C6       0.58386    0.93134    0.28107   1.00
H2       0.60054    0.87200    0.21125   1.00
C6       0.58411    0.86873    0.15164   1.00
C6       0.62052    0.92381    0.18256   1.00
H2       0.53314    0.84903    0.06154   1.00
H2       0.50309    0.81730    0.03410   1.00
H2       0.55418    0.81014    0.03583   1.00
H2       0.55738    0.74104    0.06892   1.00
H2       0.51437    0.72724    0.09322   1.00
H2       0.51225    0.74539    0.04536   1.00
H2       0.47006    0.77823    0.22828   1.00
H2       0.44421    0.81155    0.19968   1.00
H2       0.43863    0.76082    0.19148   1.00
H2       0.54080    0.74151    0.15638   1.00
H2       0.51895    0.73463    0.20192   1.00
H2       0.49339    0.72063    0.15950   1.00
H2       0.43670    0.73226    0.10986   1.00
H2       0.40064    0.75065    0.07792   1.00
H2       0.44837    0.74713    0.06168   1.00
H2       0.39308    0.78401    0.14598   1.00
H2       0.40601    0.83332    0.14432   1.00
H2       0.37795    0.81335    0.10672   1.00
H2       0.49245    0.95797    0.14812   1.00
H2       0.52813    0.99465    0.14691   1.00
H2       0.54080    0.94665    0.13452   1.00
H2       0.50417    1.01141    0.21375   1.00
H2       0.47378    0.97065    0.21926   1.00
H2       0.51073    0.98051    0.25378   1.00
H2       0.55161    0.86558    0.31298   1.00
H2       0.53176    0.84463    0.27065   1.00
H2       0.58282    0.85104    0.27465   1.00
H2       0.58260    0.96146    0.27084   1.00
H2       0.58121    0.93221    0.31288   1.00
H2       0.61261    0.91944    0.27415   1.00
H2       0.57053    0.88573    0.12844   1.00
H2       0.61239    0.85837    0.14119   1.00
H2       0.56617    0.84311    0.15666   1.00
H2       0.64810    0.90987    0.17456   1.00
H2       0.61236    0.94342    0.15878   1.00
H2       0.62630    0.94138    0.20843   1.00
C4       0.91384    0.41219    0.68584   1.00
C4       0.91355    0.41285    0.64412   1.00
C3       0.88557    0.39224    0.70864   1.00
C3       0.88306    0.39669    0.62116   1.00
C3       0.94359    0.43302    0.70623   1.00
C3       0.94538    0.43049    0.62386   1.00
C2       0.91534    0.41385    0.77012   1.00
C2       0.91466    0.41615    0.55988   1.00
C3       0.88614    0.39322    0.74962   1.00
C3       0.88376    0.39796    0.58019   1.00
C3       0.94409    0.43304    0.74758   1.00
C3       0.94471    0.43294    0.58262   1.00
H1       0.86381    0.37631    0.69615   1.00
H1       0.85934    0.38374    0.63352   1.00
C5       0.97275    0.45356    0.68520   1.00
C5       0.97755    0.44589    0.64480   1.00
H1       0.86477    0.37848    0.76455   1.00
H1       0.86108    0.38550    0.56510   1.00
H1       0.96623    0.44721    0.76180   1.00
H1       0.96647    0.44784    0.56868   1.00
O3       0.99734    0.47877    0.70461   1.00
O3       1.01179    0.45594    0.62599   1.00
Si1      0.98638    0.52506    0.70747   1.00
Si1      1.04429    0.42212    0.61779   1.00
C6       1.02369    0.53843    0.74038   1.00
C6       0.99425    0.54564    0.66098   1.00
C6       0.93972    0.53375    0.72753   1.00
C6       1.03331    0.37374    0.63193   1.00
C6       1.05052    0.42405    0.56698   1.00
C6       1.08814    0.43752    0.63977   1.00
C6       1.02870    0.51138    0.77694   1.00
H2       1.04996    0.53395    0.72291   1.00
C6       1.02677    0.58121    0.75647   1.00
H2       1.01585    0.52581    0.64858   1.00
C6       0.95953    0.54624    0.63134   1.00
C6       1.01288    0.58726    0.65836   1.00
H2       0.93990    0.51496    0.75331   1.00
C6       0.93099    0.57599    0.74272   1.00
C6       0.90230    0.52252    0.70349   1.00
C6       1.02304    0.36597    0.67571   1.00
C6       1.00366    0.34921    0.60725   1.00
H2       1.06106    0.35886    0.62712   1.00
H2       1.02317    0.41247    0.55551   1.00
C6       1.05459    0.46578    0.54878   1.00
C6       1.08386    0.39866    0.54893   1.00
H2       1.10054    0.45800    0.61875   1.00
C6       1.08411    0.46127    0.67836   1.00
C6       1.12052    0.40619    0.64744   1.00
H2       1.03314    0.48097    0.76846   1.00
H2       1.00309    0.51270    0.79590   1.00
H2       1.05418    0.51986    0.79417   1.00
H2       1.05738    0.58896    0.76108   1.00
H2       1.01437    0.60276    0.73678   1.00
H2       1.01225    0.58461    0.78464   1.00
H2       0.97006    0.55177    0.60172   1.00
H2       0.94421    0.51845    0.63032   1.00
H2       0.93863    0.56918    0.63852   1.00
H2       1.04080    0.58849    0.67362   1.00
H2       1.01895    0.59537    0.62808   1.00
H2       0.99339    0.60937    0.67050   1.00
H2       0.93670    0.59774    0.72014   1.00
H2       0.90064    0.57935    0.75208   1.00
H2       0.94837    0.58287    0.76832   1.00
H2       0.89308    0.54599    0.68402   1.00
H2       0.90601    0.49668    0.68568   1.00
H2       0.87795    0.51665    0.72328   1.00
H2       0.99245    0.37203    0.68188   1.00
H2       1.02813    0.33535    0.68309   1.00
H2       1.04080    0.38335    0.69548   1.00
H2       1.00417    0.31859    0.61625   1.00
H2       0.97378    0.35935    0.61074   1.00
H2       1.01073    0.34949    0.57622   1.00
H2       1.05161    0.46442    0.51702   1.00
H2       1.03176    0.48537    0.55935   1.00
H2       1.08282    0.47896    0.55535   1.00
H2       1.08260    0.36854    0.55916   1.00
H2       1.08121    0.39779    0.51712   1.00
H2       1.11261    0.41056    0.55585   1.00
H2       1.07053    0.44427    0.70156   1.00
H2       1.11239    0.47163    0.68881   1.00
H2       1.06617    0.48689    0.67334   1.00
H2       1.14810    0.42013    0.65544   1.00
H2       1.11236    0.38658    0.67122   1.00
H2       1.12630    0.38862    0.62157   1.00
C4       0.91219    0.68584    0.41384   1.00
C4       0.91285    0.64412    0.41355   1.00
C3       0.89224    0.70864    0.38557   1.00
C3       0.89669    0.62116    0.38306   1.00
C3       0.93302    0.70623    0.44359   1.00
C3       0.93049    0.62386    0.44538   1.00
C2       0.91385    0.77012    0.41534   1.00
C2       0.91615    0.55988    0.41466   1.00
C3       0.89322    0.74962    0.38614   1.00
C3       0.89796    0.58019    0.38376   1.00
C3       0.93304    0.74758    0.44409   1.00
C3       0.93294    0.58262    0.44471   1.00
H1       0.87631    0.69615    0.36381   1.00
H1       0.88374    0.63352    0.35934   1.00
C5       0.95356    0.68520    0.47275   1.00
C5       0.94589    0.64480    0.47755   1.00
H1       0.87848    0.76455    0.36477   1.00
H1       0.88550    0.56510    0.36108   1.00
H1       0.94721    0.76180    0.46623   1.00
H1       0.94784    0.56868    0.46647   1.00
O3       0.97877    0.70461    0.49734   1.00
O3       0.95594    0.62599    0.51179   1.00
Si1      1.02506    0.70747    0.48638   1.00
Si1      0.92212    0.61779    0.54429   1.00
C6       1.03843    0.74038    0.52369   1.00
C6       1.04564    0.66098    0.49425   1.00
C6       1.03375    0.72753    0.43972   1.00
C6       0.87374    0.63193    0.53331   1.00
C6       0.92405    0.56698    0.55052   1.00
C6       0.93752    0.63977    0.58814   1.00
C6       1.01138    0.77694    0.52870   1.00
H2       1.03395    0.72291    0.54996   1.00
C6       1.08121    0.75647    0.52677   1.00
H2       1.02581    0.64858    0.51585   1.00
C6       1.04624    0.63134    0.45953   1.00
C6       1.08726    0.65836    0.51288   1.00
H2       1.01496    0.75331    0.43990   1.00
C6       1.07599    0.74272    0.43099   1.00
C6       1.02252    0.70349    0.40230   1.00
C6       0.86597    0.67571    0.52304   1.00
C6       0.84921    0.60725    0.50366   1.00
H2       0.85886    0.62712    0.56106   1.00
H2       0.91247    0.55551    0.52317   1.00
C6       0.96578    0.54878    0.55459   1.00
C6       0.89866    0.54893    0.58386   1.00
H2       0.95800    0.61875    0.60054   1.00
C6       0.96127    0.67836    0.58411   1.00
C6       0.90619    0.64744    0.62052   1.00
H2       0.98097    0.76846    0.53314   1.00
H2       1.01270    0.79590    0.50309   1.00
H2       1.01986    0.79417    0.55418   1.00
H2       1.08896    0.76108    0.55738   1.00
H2       1.10276    0.73678    0.51437   1.00
H2       1.08461    0.78464    0.51225   1.00
H2       1.05177    0.60172    0.47006   1.00
H2       1.01845    0.63032    0.44421   1.00
H2       1.06918    0.63852    0.43863   1.00
H2       1.08849    0.67362    0.54080   1.00
H2       1.09537    0.62808    0.51895   1.00
H2       1.10937    0.67050    0.49339   1.00
H2       1.09774    0.72014    0.43670   1.00
H2       1.07935    0.75208    0.40064   1.00
H2       1.08287    0.76832    0.44837   1.00
H2       1.04599    0.68402    0.39308   1.00
H2       0.99668    0.68568    0.40601   1.00
H2       1.01665    0.72328    0.37795   1.00
H2       0.87203    0.68188    0.49245   1.00
H2       0.83535    0.68309    0.52813   1.00
H2       0.88335    0.69548    0.54080   1.00
H2       0.81859    0.61625    0.50417   1.00
H2       0.85935    0.61074    0.47378   1.00
H2       0.84949    0.57622    0.51073   1.00
H2       0.96442    0.51702    0.55161   1.00
H2       0.98537    0.55935    0.53176   1.00
H2       0.97896    0.55535    0.58282   1.00
H2       0.86854    0.55916    0.58260   1.00
H2       0.89779    0.51712    0.58121   1.00
H2       0.91056    0.55585    0.61261   1.00
H2       0.94427    0.70156    0.57053   1.00
H2       0.97163    0.68881    0.61239   1.00
H2       0.98689    0.67334    0.56617   1.00
H2       0.92013    0.65544    0.64810   1.00
H2       0.88658    0.67122    0.61236   1.00
H2       0.88862    0.62157    0.62630   1.00
C4       0.64416    0.41384    0.41781   1.00
C4       0.68588    0.41355    0.41715   1.00
C3       0.62136    0.38557    0.43776   1.00
C3       0.70884    0.38306    0.43331   1.00
C3       0.62377    0.44359    0.39698   1.00
C3       0.70614    0.44538    0.39951   1.00
C2       0.55988    0.41534    0.41615   1.00
C2       0.77012    0.41466    0.41385   1.00
C3       0.58038    0.38614    0.43678   1.00
C3       0.74981    0.38376    0.43204   1.00
C3       0.58242    0.44409    0.39696   1.00
C3       0.74738    0.44471    0.39706   1.00
H1       0.63385    0.36381    0.45369   1.00
H1       0.69648    0.35934    0.44626   1.00
C5       0.64480    0.47275    0.37644   1.00
C5       0.68520    0.47755    0.38411   1.00
H1       0.56545    0.36477    0.45152   1.00
H1       0.76490    0.36108    0.44450   1.00
H1       0.56820    0.46623    0.38279   1.00
H1       0.76132    0.46647    0.38216   1.00
O3       0.62539    0.49734    0.35123   1.00
O3       0.70401    0.51179    0.37406   1.00
Si1      0.62253    0.48638    0.30494   1.00
Si1      0.71221    0.54429    0.40788   1.00
C6       0.58962    0.52369    0.29157   1.00
C6       0.66902    0.49425    0.28436   1.00
C6       0.60247    0.43972    0.29625   1.00
C6       0.69807    0.53331    0.45626   1.00
C6       0.76302    0.55052    0.40595   1.00
C6       0.69023    0.58814    0.39248   1.00
C6       0.55306    0.52870    0.31862   1.00
H2       0.60709    0.54996    0.29605   1.00
C6       0.57353    0.52677    0.24879   1.00
H2       0.68142    0.51585    0.30419   1.00
C6       0.69866    0.45953    0.28376   1.00
C6       0.67164    0.51288    0.24274   1.00
H2       0.57669    0.43990    0.31504   1.00
C6       0.58728    0.43099    0.25401   1.00
C6       0.62651    0.40230    0.30748   1.00
C6       0.65429    0.52304    0.46403   1.00
C6       0.72275    0.50366    0.48079   1.00
H2       0.70288    0.56106    0.47114   1.00
H2       0.77449    0.52317    0.41753   1.00
C6       0.78122    0.55459    0.36422   1.00
C6       0.78107    0.58386    0.43134   1.00
H2       0.71125    0.60054    0.37200   1.00
C6       0.65164    0.58411    0.36873   1.00
C6       0.68256    0.62052    0.42381   1.00
H2       0.56154    0.53314    0.34903   1.00
H2       0.53410    0.50309    0.31730   1.00
H2       0.53583    0.55418    0.31014   1.00
H2       0.56892    0.55738    0.24104   1.00
H2       0.59322    0.51437    0.22724   1.00
H2       0.54536    0.51225    0.24539   1.00
H2       0.72828    0.47006    0.27823   1.00
H2       0.69968    0.44421    0.31155   1.00
H2       0.69148    0.43863    0.26082   1.00
H2       0.65638    0.54080    0.24151   1.00
H2       0.70192    0.51895    0.23463   1.00
H2       0.65950    0.49339    0.22063   1.00
H2       0.60986    0.43670    0.23226   1.00
H2       0.57792    0.40064    0.25065   1.00
H2       0.56168    0.44837    0.24713   1.00
H2       0.64598    0.39308    0.28401   1.00
H2       0.64432    0.40601    0.33332   1.00
H2       0.60672    0.37795    0.31335   1.00
H2       0.64812    0.49245    0.45797   1.00
H2       0.64691    0.52813    0.49465   1.00
H2       0.63452    0.54080    0.44665   1.00
H2       0.71375    0.50417    0.51141   1.00
H2       0.71926    0.47378    0.47065   1.00
H2       0.75378    0.51073    0.48051   1.00
H2       0.81298    0.55161    0.36558   1.00
H2       0.77065    0.53176    0.34463   1.00
H2       0.77465    0.58282    0.35104   1.00
H2       0.77084    0.58260    0.46146   1.00
H2       0.81288    0.58121    0.43221   1.00
H2       0.77415    0.61261    0.41944   1.00
H2       0.62844    0.57053    0.38573   1.00
H2       0.64119    0.61239    0.35837   1.00
H2       0.65666    0.56617    0.34311   1.00
H2       0.67456    0.64810    0.40987   1.00
H2       0.65878    0.61236    0.44342   1.00
H2       0.70843    0.62630    0.44138   1.00
C4       1.18584    0.41384    0.41219   1.00
C4       1.14412    0.41355    0.41285   1.00
C3       1.20864    0.38557    0.39224   1.00
C3       1.12116    0.38306    0.39669   1.00
C3       1.20623    0.44359    0.43302   1.00
C3       1.12386    0.44538    0.43049   1.00
C2       1.27012    0.41534    0.41385   1.00
C2       1.05988    0.41466    0.41615   1.00
C3       1.24962    0.38614    0.39322   1.00
C3       1.08019    0.38376    0.39796   1.00
C3       1.24758    0.44409    0.43304   1.00
C3       1.08262    0.44471    0.43294   1.00
H1       1.19615    0.36381    0.37631   1.00
H1       1.13352    0.35934    0.38374   1.00
C5       1.18520    0.47275    0.45356   1.00
C5       1.14480    0.47755    0.44589   1.00
H1       1.26455    0.36477    0.37848   1.00
H1       1.06510    0.36108    0.38550   1.00
H1       1.26180    0.46623    0.44721   1.00
H1       1.06868    0.46647    0.44784   1.00
O3       1.20461    0.49734    0.47877   1.00
O3       1.12599    0.51179    0.45594   1.00
Si1      1.20747    0.48638    0.52506   1.00
Si1      1.11779    0.54429    0.42212   1.00
C6       1.24038    0.52369    0.53843   1.00
C6       1.16098    0.49425    0.54564   1.00
C6       1.22753    0.43972    0.53375   1.00
C6       1.13193    0.53331    0.37374   1.00
C6       1.06698    0.55052    0.42405   1.00
C6       1.13977    0.58814    0.43752   1.00
C6       1.27694    0.52870    0.51138   1.00
H2       1.22291    0.54996    0.53395   1.00
C6       1.25647    0.52677    0.58121   1.00
H2       1.14858    0.51585    0.52581   1.00
C6       1.13134    0.45953    0.54624   1.00
C6       1.15836    0.51288    0.58726   1.00
H2       1.25331    0.43990    0.51496   1.00
C6       1.24272    0.43099    0.57599   1.00
C6       1.20349    0.40230    0.52252   1.00
C6       1.17571    0.52304    0.36597   1.00
C6       1.10725    0.50366    0.34921   1.00
H2       1.12712    0.56106    0.35886   1.00
H2       1.05551    0.52317    0.41247   1.00
C6       1.04878    0.55459    0.46578   1.00
C6       1.04893    0.58386    0.39866   1.00
H2       1.11875    0.60054    0.45800   1.00
C6       1.17836    0.58411    0.46127   1.00
C6       1.14744    0.62052    0.40619   1.00
H2       1.26846    0.53314    0.48097   1.00
H2       1.29590    0.50309    0.51270   1.00
H2       1.29417    0.55418    0.51986   1.00
H2       1.26108    0.55738    0.58896   1.00
H2       1.23678    0.51437    0.60276   1.00
H2       1.28464    0.51225    0.58461   1.00
H2       1.10172    0.47006    0.55177   1.00
H2       1.13032    0.44421    0.51845   1.00
H2       1.13852    0.43863    0.56918   1.00
H2       1.17362    0.54080    0.58849   1.00
H2       1.12808    0.51895    0.59537   1.00
H2       1.17050    0.49339    0.60937   1.00
H2       1.22014    0.43670    0.59774   1.00
H2       1.25208    0.40064    0.57935   1.00
H2       1.26832    0.44837    0.58287   1.00
H2       1.18402    0.39308    0.54599   1.00
H2       1.18568    0.40601    0.49668   1.00
H2       1.22328    0.37795    0.51665   1.00
H2       1.18188    0.49245    0.37203   1.00
H2       1.18309    0.52813    0.33535   1.00
H2       1.19548    0.54080    0.38335   1.00
H2       1.11625    0.50417    0.31859   1.00
H2       1.11074    0.47378    0.35935   1.00
H2       1.07622    0.51073    0.34949   1.00
H2       1.01702    0.55161    0.46442   1.00
H2       1.05935    0.53176    0.48537   1.00
H2       1.05535    0.58282    0.47896   1.00
H2       1.05916    0.58260    0.36854   1.00
H2       1.01712    0.58121    0.39779   1.00
H2       1.05585    0.61261    0.41056   1.00
H2       1.20156    0.57053    0.44427   1.00
H2       1.18881    0.61239    0.47163   1.00
H2       1.17334    0.56617    0.48689   1.00
H2       1.15544    0.64810    0.42013   1.00
H2       1.17122    0.61236    0.38658   1.00
H2       1.12157    0.62630    0.38862   1.00
C4       0.91781    0.14416    0.41384   1.00
C4       0.91715    0.18588    0.41355   1.00
C3       0.93776    0.12136    0.38557   1.00
C3       0.93331    0.20884    0.38306   1.00
C3       0.89698    0.12377    0.44359   1.00
C3       0.89951    0.20614    0.44538   1.00
C2       0.91615    0.05988    0.41534   1.00
C2       0.91385    0.27012    0.41466   1.00
C3       0.93678    0.08038    0.38614   1.00
C3       0.93204    0.24981    0.38376   1.00
C3       0.89696    0.08242    0.44409   1.00
C3       0.89706    0.24738    0.44471   1.00
H1       0.95369    0.13385    0.36381   1.00
H1       0.94626    0.19648    0.35934   1.00
C5       0.87644    0.14480    0.47275   1.00
C5       0.88411    0.18520    0.47755   1.00
H1       0.95152    0.06545    0.36477   1.00
H1       0.94450    0.26490    0.36108   1.00
H1       0.88279    0.06820    0.46623   1.00
H1       0.88216    0.26132    0.46647   1.00
O3       0.85123    0.12539    0.49734   1.00
O3       0.87406    0.20401    0.51179   1.00
Si1      0.80494    0.12253    0.48638   1.00
Si1      0.90788    0.21221    0.54429   1.00
C6       0.79157    0.08962    0.52369   1.00
C6       0.78436    0.16902    0.49425   1.00
C6       0.79625    0.10247    0.43972   1.00
C6       0.95626    0.19807    0.53331   1.00
C6       0.90595    0.26302    0.55052   1.00
C6       0.89248    0.19023    0.58814   1.00
C6       0.81862    0.05306    0.52870   1.00
H2       0.79605    0.10709    0.54996   1.00
C6       0.74879    0.07353    0.52677   1.00
H2       0.80419    0.18142    0.51585   1.00
C6       0.78376    0.19866    0.45953   1.00
C6       0.74274    0.17164    0.51288   1.00
H2       0.81504    0.07669    0.43990   1.00
C6       0.75401    0.08728    0.43099   1.00
C6       0.80748    0.12651    0.40230   1.00
C6       0.96403    0.15429    0.52304   1.00
C6       0.98079    0.22275    0.50366   1.00
H2       0.97114    0.20288    0.56106   1.00
H2       0.91753    0.27449    0.52317   1.00
C6       0.86422    0.28122    0.55459   1.00
C6       0.93134    0.28107    0.58386   1.00
H2       0.87200    0.21125    0.60054   1.00
C6       0.86873    0.15164    0.58411   1.00
C6       0.92381    0.18256    0.62052   1.00
H2       0.84903    0.06154    0.53314   1.00
H2       0.81730    0.03410    0.50309   1.00
H2       0.81014    0.03583    0.55418   1.00
H2       0.74104    0.06892    0.55738   1.00
H2       0.72724    0.09322    0.51437   1.00
H2       0.74539    0.04536    0.51225   1.00
H2       0.77823    0.22828    0.47006   1.00
H2       0.81155    0.19968    0.44421   1.00
H2       0.76082    0.19148    0.43863   1.00
H2       0.74151    0.15638    0.54080   1.00
H2       0.73463    0.20192    0.51895   1.00
H2       0.72063    0.15950    0.49339   1.00
H2       0.73226    0.10986    0.43670   1.00
H2       0.75065    0.07792    0.40064   1.00
H2       0.74713    0.06168    0.44837   1.00
H2       0.78401    0.14598    0.39308   1.00
H2       0.83332    0.14432    0.40601   1.00
H2       0.81335    0.10672    0.37795   1.00
H2       0.95797    0.14812    0.49245   1.00
H2       0.99465    0.14691    0.52813   1.00
H2       0.94665    0.13452    0.54080   1.00
H2       1.01141    0.21375    0.50417   1.00
H2       0.97065    0.21926    0.47378   1.00
H2       0.98051    0.25378    0.51073   1.00
H2       0.86558    0.31298    0.55161   1.00
H2       0.84463    0.27065    0.53176   1.00
H2       0.85104    0.27465    0.58282   1.00
H2       0.96146    0.27084    0.58260   1.00
H2       0.93221    0.31288    0.58121   1.00
H2       0.91944    0.27415    0.61261   1.00
H2       0.88573    0.12844    0.57053   1.00
H2       0.85837    0.14119    0.61239   1.00
H2       0.84311    0.15666    0.56617   1.00
H2       0.90987    0.17456    0.64810   1.00
H2       0.94342    0.15878    0.61236   1.00
H2       0.94138    0.20843    0.62630   1.00
C4       0.91384    0.41781    0.14416   1.00
C4       0.91355    0.41715    0.18588   1.00
C3       0.88557    0.43776    0.12136   1.00
C3       0.88306    0.43331    0.20884   1.00
C3       0.94359    0.39698    0.12377   1.00
C3       0.94538    0.39951    0.20614   1.00
C2       0.91534    0.41615    0.05988   1.00
C2       0.91466    0.41385    0.27012   1.00
C3       0.88614    0.43678    0.08038   1.00
C3       0.88376    0.43204    0.24981   1.00
C3       0.94409    0.39696    0.08242   1.00
C3       0.94471    0.39706    0.24738   1.00
H1       0.86381    0.45369    0.13385   1.00
H1       0.85934    0.44626    0.19648   1.00
C5       0.97275    0.37644    0.14480   1.00
C5       0.97755    0.38411    0.18520   1.00
H1       0.86477    0.45152    0.06545   1.00
H1       0.86108    0.44450    0.26490   1.00
H1       0.96623    0.38279    0.06820   1.00
H1       0.96647    0.38216    0.26132   1.00
O3       0.99734    0.35123    0.12539   1.00
O3       1.01179    0.37406    0.20401   1.00
Si1      0.98638    0.30494    0.12253   1.00
Si1      1.04429    0.40788    0.21221   1.00
C6       1.02369    0.29157    0.08962   1.00
C6       0.99425    0.28436    0.16902   1.00
C6       0.93972    0.29625    0.10247   1.00
C6       1.03331    0.45626    0.19807   1.00
C6       1.05052    0.40595    0.26302   1.00
C6       1.08814    0.39248    0.19023   1.00
C6       1.02870    0.31862    0.05306   1.00
H2       1.04996    0.29605    0.10709   1.00
C6       1.02677    0.24879    0.07353   1.00
H2       1.01585    0.30419    0.18142   1.00
C6       0.95953    0.28376    0.19866   1.00
C6       1.01288    0.24274    0.17164   1.00
H2       0.93990    0.31504    0.07669   1.00
C6       0.93099    0.25401    0.08728   1.00
C6       0.90230    0.30748    0.12651   1.00
C6       1.02304    0.46403    0.15429   1.00
C6       1.00366    0.48079    0.22275   1.00
H2       1.06106    0.47114    0.20288   1.00
H2       1.02317    0.41753    0.27449   1.00
C6       1.05459    0.36422    0.28122   1.00
C6       1.08386    0.43134    0.28107   1.00
H2       1.10054    0.37200    0.21125   1.00
C6       1.08411    0.36873    0.15164   1.00
C6       1.12052    0.42381    0.18256   1.00
H2       1.03314    0.34903    0.06154   1.00
H2       1.00309    0.31730    0.03410   1.00
H2       1.05418    0.31014    0.03583   1.00
H2       1.05738    0.24104    0.06892   1.00
H2       1.01437    0.22724    0.09322   1.00
H2       1.01225    0.24539    0.04536   1.00
H2       0.97006    0.27823    0.22828   1.00
H2       0.94421    0.31155    0.19968   1.00
H2       0.93863    0.26082    0.19148   1.00
H2       1.04080    0.24151    0.15638   1.00
H2       1.01895    0.23463    0.20192   1.00
H2       0.99339    0.22063    0.15950   1.00
H2       0.93670    0.23226    0.10986   1.00
H2       0.90064    0.25065    0.07792   1.00
H2       0.94837    0.24713    0.06168   1.00
H2       0.89308    0.28401    0.14598   1.00
H2       0.90601    0.33332    0.14432   1.00
H2       0.87795    0.31335    0.10672   1.00
H2       0.99245    0.45797    0.14812   1.00
H2       1.02813    0.49465    0.14691   1.00
H2       1.04080    0.44665    0.13452   1.00
H2       1.00417    0.51141    0.21375   1.00
H2       0.97378    0.47065    0.21926   1.00
H2       1.01073    0.48051    0.25378   1.00
H2       1.05161    0.36558    0.31298   1.00
H2       1.03176    0.34463    0.27065   1.00
H2       1.08282    0.35104    0.27465   1.00
H2       1.08260    0.46146    0.27084   1.00
H2       1.08121    0.43221    0.31288   1.00
H2       1.11261    0.41944    0.27415   1.00
H2       1.07053    0.38573    0.12844   1.00
H2       1.11239    0.35837    0.14119   1.00
H2       1.06617    0.34311    0.15666   1.00
H2       1.14810    0.40987    0.17456   1.00
H2       1.11236    0.44342    0.15878   1.00
H2       1.12630    0.44138    0.20843   1.00
