data_IRMOF10_SG202_interpen_Ligand8cp_label_l.

_audit_creation_method             'generated by an auxiliary program of Tobunporous'

_symmetry_space_group_name_H-M     'P 1'
_symmetry_Int_Tables_number        1
_symmetry_cell_setting             triclinic

_cell_length_a                    34.2800
_cell_length_b                    34.2800
_cell_length_c                    34.2800
_cell_angle_alpha                 90.0000
_cell_angle_beta                  90.0000
_cell_angle_gamma                 90.0000

loop_
_atom_site_label
_atom_site_fract_x
_atom_site_fract_y
_atom_site_fract_z
_atom_site_occupancy
O1       0.75000    0.75000    0.75000   1.00
Zn1      0.71720    0.78280    0.78280   1.00
Zn1      0.78280    0.71720    0.78280   1.00
Zn1      0.78280    0.78280    0.71720   1.00
Zn1      0.71720    0.71720    0.71720   1.00
O2       0.72650    0.77350    0.83820   1.00
O2       0.72650    0.83820    0.77350   1.00
O2       0.66180    0.77350    0.77350   1.00
O2       0.77350    0.72650    0.83820   1.00
O2       0.83820    0.72650    0.77350   1.00
O2       0.77350    0.66180    0.77350   1.00
O2       0.77350    0.83820    0.72650   1.00
O2       0.83820    0.77350    0.72650   1.00
O2       0.77350    0.77350    0.66180   1.00
O2       0.66180    0.72650    0.72650   1.00
O2       0.72650    0.66180    0.72650   1.00
O2       0.72650    0.72650    0.66180   1.00
C1       0.75000    0.75000    0.85520   1.00
C1       0.75000    0.85520    0.75000   1.00
C1       0.64480    0.75000    0.75000   1.00
C1       0.85520    0.75000    0.75000   1.00
C1       0.75000    0.64480    0.75000   1.00
C1       0.75000    0.75000    0.64480   1.00
O1       0.25000    0.25000    0.75000   1.00
Zn1      0.21720    0.28280    0.78280   1.00
Zn1      0.28280    0.21720    0.78280   1.00
Zn1      0.28280    0.28280    0.71720   1.00
Zn1      0.21720    0.21720    0.71720   1.00
O2       0.22650    0.27350    0.83820   1.00
O2       0.22650    0.33820    0.77350   1.00
O2       0.16180    0.27350    0.77350   1.00
O2       0.27350    0.22650    0.83820   1.00
O2       0.33820    0.22650    0.77350   1.00
O2       0.27350    0.16180    0.77350   1.00
O2       0.27350    0.33820    0.72650   1.00
O2       0.33820    0.27350    0.72650   1.00
O2       0.27350    0.27350    0.66180   1.00
O2       0.16180    0.22650    0.72650   1.00
O2       0.22650    0.16180    0.72650   1.00
O2       0.22650    0.22650    0.66180   1.00
C1       0.25000    0.25000    0.85520   1.00
C1       0.25000    0.35520    0.75000   1.00
C1       0.14480    0.25000    0.75000   1.00
C1       0.35520    0.25000    0.75000   1.00
C1       0.25000    0.14480    0.75000   1.00
C1       0.25000    0.25000    0.64480   1.00
O1       0.25000    0.75000    0.25000   1.00
Zn1      0.21720    0.78280    0.28280   1.00
Zn1      0.28280    0.71720    0.28280   1.00
Zn1      0.28280    0.78280    0.21720   1.00
Zn1      0.21720    0.71720    0.21720   1.00
O2       0.22650    0.77350    0.33820   1.00
O2       0.22650    0.83820    0.27350   1.00
O2       0.16180    0.77350    0.27350   1.00
O2       0.27350    0.72650    0.33820   1.00
O2       0.33820    0.72650    0.27350   1.00
O2       0.27350    0.66180    0.27350   1.00
O2       0.27350    0.83820    0.22650   1.00
O2       0.33820    0.77350    0.22650   1.00
O2       0.27350    0.77350    0.16180   1.00
O2       0.16180    0.72650    0.22650   1.00
O2       0.22650    0.66180    0.22650   1.00
O2       0.22650    0.72650    0.16180   1.00
C1       0.25000    0.75000    0.35520   1.00
C1       0.25000    0.85520    0.25000   1.00
C1       0.14480    0.75000    0.25000   1.00
C1       0.35520    0.75000    0.25000   1.00
C1       0.25000    0.64480    0.25000   1.00
C1       0.25000    0.75000    0.14480   1.00
O1       0.75000    0.25000    0.25000   1.00
Zn1      0.71720    0.28280    0.28280   1.00
Zn1      0.78280    0.21720    0.28280   1.00
Zn1      0.78280    0.28280    0.21720   1.00
Zn1      0.71720    0.21720    0.21720   1.00
O2       0.72650    0.27350    0.33820   1.00
O2       0.72650    0.33820    0.27350   1.00
O2       0.66180    0.27350    0.27350   1.00
O2       0.77350    0.22650    0.33820   1.00
O2       0.83820    0.22650    0.27350   1.00
O2       0.77350    0.16180    0.27350   1.00
O2       0.77350    0.33820    0.22650   1.00
O2       0.83820    0.27350    0.22650   1.00
O2       0.77350    0.27350    0.16180   1.00
O2       0.66180    0.22650    0.22650   1.00
O2       0.72650    0.16180    0.22650   1.00
O2       0.72650    0.22650    0.16180   1.00
C1       0.75000    0.25000    0.35520   1.00
C1       0.75000    0.35520    0.25000   1.00
C1       0.64480    0.25000    0.25000   1.00
C1       0.85520    0.25000    0.25000   1.00
C1       0.75000    0.14480    0.25000   1.00
C1       0.75000    0.25000    0.14480   1.00
O1       0.25000    0.25000    0.25000   1.00
Zn1      0.28280    0.21720    0.21720   1.00
Zn1      0.21720    0.28280    0.21720   1.00
Zn1      0.21720    0.21720    0.28280   1.00
Zn1      0.28280    0.28280    0.28280   1.00
O2       0.27350    0.22650    0.16180   1.00
O2       0.27350    0.16180    0.22650   1.00
O2       0.33820    0.22650    0.22650   1.00
O2       0.22650    0.27350    0.16180   1.00
O2       0.16180    0.27350    0.22650   1.00
O2       0.22650    0.33820    0.22650   1.00
O2       0.22650    0.16180    0.27350   1.00
O2       0.16180    0.22650    0.27350   1.00
O2       0.22650    0.22650    0.33820   1.00
O2       0.33820    0.27350    0.27350   1.00
O2       0.27350    0.33820    0.27350   1.00
O2       0.27350    0.27350    0.33820   1.00
C1       0.25000    0.25000    0.14480   1.00
C1       0.25000    0.14480    0.25000   1.00
C1       0.35520    0.25000    0.25000   1.00
C1       0.14480    0.25000    0.25000   1.00
C1       0.25000    0.35520    0.25000   1.00
C1       0.25000    0.25000    0.35520   1.00
O1       0.75000    0.75000    0.25000   1.00
Zn1      0.78280    0.71720    0.21720   1.00
Zn1      0.71720    0.78280    0.21720   1.00
Zn1      0.71720    0.71720    0.28280   1.00
Zn1      0.78280    0.78280    0.28280   1.00
O2       0.77350    0.72650    0.16180   1.00
O2       0.77350    0.66180    0.22650   1.00
O2       0.83820    0.72650    0.22650   1.00
O2       0.72650    0.77350    0.16180   1.00
O2       0.66180    0.77350    0.22650   1.00
O2       0.72650    0.83820    0.22650   1.00
O2       0.72650    0.66180    0.27350   1.00
O2       0.66180    0.72650    0.27350   1.00
O2       0.72650    0.72650    0.33820   1.00
O2       0.83820    0.77350    0.27350   1.00
O2       0.77350    0.83820    0.27350   1.00
O2       0.77350    0.77350    0.33820   1.00
C1       0.75000    0.75000    0.14480   1.00
C1       0.75000    0.64480    0.25000   1.00
C1       0.85520    0.75000    0.25000   1.00
C1       0.64480    0.75000    0.25000   1.00
C1       0.75000    0.85520    0.25000   1.00
C1       0.75000    0.75000    0.35520   1.00
O1       0.75000    0.25000    0.75000   1.00
Zn1      0.78280    0.21720    0.71720   1.00
Zn1      0.71720    0.28280    0.71720   1.00
Zn1      0.71720    0.21720    0.78280   1.00
Zn1      0.78280    0.28280    0.78280   1.00
O2       0.77350    0.22650    0.66180   1.00
O2       0.77350    0.16180    0.72650   1.00
O2       0.83820    0.22650    0.72650   1.00
O2       0.72650    0.27350    0.66180   1.00
O2       0.66180    0.27350    0.72650   1.00
O2       0.72650    0.33820    0.72650   1.00
O2       0.72650    0.16180    0.77350   1.00
O2       0.66180    0.22650    0.77350   1.00
O2       0.72650    0.22650    0.83820   1.00
O2       0.83820    0.27350    0.77350   1.00
O2       0.77350    0.33820    0.77350   1.00
O2       0.77350    0.27350    0.83820   1.00
C1       0.75000    0.25000    0.64480   1.00
C1       0.75000    0.14480    0.75000   1.00
C1       0.85520    0.25000    0.75000   1.00
C1       0.64480    0.25000    0.75000   1.00
C1       0.75000    0.35520    0.75000   1.00
C1       0.75000    0.25000    0.85520   1.00
O1       0.25000    0.75000    0.75000   1.00
Zn1      0.28280    0.71720    0.71720   1.00
Zn1      0.21720    0.78280    0.71720   1.00
Zn1      0.21720    0.71720    0.78280   1.00
Zn1      0.28280    0.78280    0.78280   1.00
O2       0.27350    0.72650    0.66180   1.00
O2       0.27350    0.66180    0.72650   1.00
O2       0.33820    0.72650    0.72650   1.00
O2       0.22650    0.77350    0.66180   1.00
O2       0.16180    0.77350    0.72650   1.00
O2       0.22650    0.83820    0.72650   1.00
O2       0.22650    0.66180    0.77350   1.00
O2       0.16180    0.72650    0.77350   1.00
O2       0.22650    0.72650    0.83820   1.00
O2       0.33820    0.77350    0.77350   1.00
O2       0.27350    0.83820    0.77350   1.00
O2       0.27350    0.77350    0.83820   1.00
C1       0.25000    0.75000    0.64480   1.00
C1       0.25000    0.64480    0.75000   1.00
C1       0.35520    0.75000    0.75000   1.00
C1       0.14480    0.75000    0.75000   1.00
C1       0.25000    0.85520    0.75000   1.00
C1       0.25000    0.75000    0.85520   1.00
O1       0.91500    0.91500    0.91500   1.00
Zn1      0.88220    0.94780    0.94780   1.00
Zn1      0.94780    0.88220    0.94780   1.00
Zn1      0.94780    0.94780    0.88220   1.00
Zn1      0.88220    0.88220    0.88220   1.00
O2       0.89150    0.93850    1.00320   1.00
O2       0.89150    1.00320    0.93850   1.00
O2       0.82680    0.93850    0.93850   1.00
O2       0.93850    0.89150    1.00320   1.00
O2       1.00320    0.89150    0.93850   1.00
O2       0.93850    0.82680    0.93850   1.00
O2       0.93850    1.00320    0.89150   1.00
O2       1.00320    0.93850    0.89150   1.00
O2       0.93850    0.93850    0.82680   1.00
O2       0.82680    0.89150    0.89150   1.00
O2       0.89150    0.82680    0.89150   1.00
O2       0.89150    0.89150    0.82680   1.00
C1       0.91500    0.91500    1.02020   1.00
C1       0.91500    1.02020    0.91500   1.00
C1       0.80980    0.91500    0.91500   1.00
C1       1.02020    0.91500    0.91500   1.00
C1       0.91500    0.80980    0.91500   1.00
C1       0.91500    0.91500    0.80980   1.00
O1       0.41500    0.41500    0.91500   1.00
Zn1      0.38220    0.44780    0.94780   1.00
Zn1      0.44780    0.38220    0.94780   1.00
Zn1      0.44780    0.44780    0.88220   1.00
Zn1      0.38220    0.38220    0.88220   1.00
O2       0.39150    0.43850    1.00320   1.00
O2       0.39150    0.50320    0.93850   1.00
O2       0.32680    0.43850    0.93850   1.00
O2       0.43850    0.39150    1.00320   1.00
O2       0.50320    0.39150    0.93850   1.00
O2       0.43850    0.32680    0.93850   1.00
O2       0.43850    0.50320    0.89150   1.00
O2       0.50320    0.43850    0.89150   1.00
O2       0.43850    0.43850    0.82680   1.00
O2       0.32680    0.39150    0.89150   1.00
O2       0.39150    0.32680    0.89150   1.00
O2       0.39150    0.39150    0.82680   1.00
C1       0.41500    0.41500    1.02020   1.00
C1       0.41500    0.52020    0.91500   1.00
C1       0.30980    0.41500    0.91500   1.00
C1       0.52020    0.41500    0.91500   1.00
C1       0.41500    0.30980    0.91500   1.00
C1       0.41500    0.41500    0.80980   1.00
O1       0.41500    0.91500    0.41500   1.00
Zn1      0.38220    0.94780    0.44780   1.00
Zn1      0.44780    0.88220    0.44780   1.00
Zn1      0.44780    0.94780    0.38220   1.00
Zn1      0.38220    0.88220    0.38220   1.00
O2       0.39150    0.93850    0.50320   1.00
O2       0.39150    1.00320    0.43850   1.00
O2       0.32680    0.93850    0.43850   1.00
O2       0.43850    0.89150    0.50320   1.00
O2       0.50320    0.89150    0.43850   1.00
O2       0.43850    0.82680    0.43850   1.00
O2       0.43850    1.00320    0.39150   1.00
O2       0.50320    0.93850    0.39150   1.00
O2       0.43850    0.93850    0.32680   1.00
O2       0.32680    0.89150    0.39150   1.00
O2       0.39150    0.82680    0.39150   1.00
O2       0.39150    0.89150    0.32680   1.00
C1       0.41500    0.91500    0.52020   1.00
C1       0.41500    1.02020    0.41500   1.00
C1       0.30980    0.91500    0.41500   1.00
C1       0.52020    0.91500    0.41500   1.00
C1       0.41500    0.80980    0.41500   1.00
C1       0.41500    0.91500    0.30980   1.00
O1       0.91500    0.41500    0.41500   1.00
Zn1      0.88220    0.44780    0.44780   1.00
Zn1      0.94780    0.38220    0.44780   1.00
Zn1      0.94780    0.44780    0.38220   1.00
Zn1      0.88220    0.38220    0.38220   1.00
O2       0.89150    0.43850    0.50320   1.00
O2       0.89150    0.50320    0.43850   1.00
O2       0.82680    0.43850    0.43850   1.00
O2       0.93850    0.39150    0.50320   1.00
O2       1.00320    0.39150    0.43850   1.00
O2       0.93850    0.32680    0.43850   1.00
O2       0.93850    0.50320    0.39150   1.00
O2       1.00320    0.43850    0.39150   1.00
O2       0.93850    0.43850    0.32680   1.00
O2       0.82680    0.39150    0.39150   1.00
O2       0.89150    0.32680    0.39150   1.00
O2       0.89150    0.39150    0.32680   1.00
C1       0.91500    0.41500    0.52020   1.00
C1       0.91500    0.52020    0.41500   1.00
C1       0.80980    0.41500    0.41500   1.00
C1       1.02020    0.41500    0.41500   1.00
C1       0.91500    0.30980    0.41500   1.00
C1       0.91500    0.41500    0.30980   1.00
O1       0.41500    0.41500    0.41500   1.00
Zn1      0.44780    0.38220    0.38220   1.00
Zn1      0.38220    0.44780    0.38220   1.00
Zn1      0.38220    0.38220    0.44780   1.00
Zn1      0.44780    0.44780    0.44780   1.00
O2       0.43850    0.39150    0.32680   1.00
O2       0.43850    0.32680    0.39150   1.00
O2       0.50320    0.39150    0.39150   1.00
O2       0.39150    0.43850    0.32680   1.00
O2       0.32680    0.43850    0.39150   1.00
O2       0.39150    0.50320    0.39150   1.00
O2       0.39150    0.32680    0.43850   1.00
O2       0.32680    0.39150    0.43850   1.00
O2       0.39150    0.39150    0.50320   1.00
O2       0.50320    0.43850    0.43850   1.00
O2       0.43850    0.50320    0.43850   1.00
O2       0.43850    0.43850    0.50320   1.00
C1       0.41500    0.41500    0.30980   1.00
C1       0.41500    0.30980    0.41500   1.00
C1       0.52020    0.41500    0.41500   1.00
C1       0.30980    0.41500    0.41500   1.00
C1       0.41500    0.52020    0.41500   1.00
C1       0.41500    0.41500    0.52020   1.00
O1       0.91500    0.91500    0.41500   1.00
Zn1      0.94780    0.88220    0.38220   1.00
Zn1      0.88220    0.94780    0.38220   1.00
Zn1      0.88220    0.88220    0.44780   1.00
Zn1      0.94780    0.94780    0.44780   1.00
O2       0.93850    0.89150    0.32680   1.00
O2       0.93850    0.82680    0.39150   1.00
O2       1.00320    0.89150    0.39150   1.00
O2       0.89150    0.93850    0.32680   1.00
O2       0.82680    0.93850    0.39150   1.00
O2       0.89150    1.00320    0.39150   1.00
O2       0.89150    0.82680    0.43850   1.00
O2       0.82680    0.89150    0.43850   1.00
O2       0.89150    0.89150    0.50320   1.00
O2       1.00320    0.93850    0.43850   1.00
O2       0.93850    1.00320    0.43850   1.00
O2       0.93850    0.93850    0.50320   1.00
C1       0.91500    0.91500    0.30980   1.00
C1       0.91500    0.80980    0.41500   1.00
C1       1.02020    0.91500    0.41500   1.00
C1       0.80980    0.91500    0.41500   1.00
C1       0.91500    1.02020    0.41500   1.00
C1       0.91500    0.91500    0.52020   1.00
O1       0.91500    0.41500    0.91500   1.00
Zn1      0.94780    0.38220    0.88220   1.00
Zn1      0.88220    0.44780    0.88220   1.00
Zn1      0.88220    0.38220    0.94780   1.00
Zn1      0.94780    0.44780    0.94780   1.00
O2       0.93850    0.39150    0.82680   1.00
O2       0.93850    0.32680    0.89150   1.00
O2       1.00320    0.39150    0.89150   1.00
O2       0.89150    0.43850    0.82680   1.00
O2       0.82680    0.43850    0.89150   1.00
O2       0.89150    0.50320    0.89150   1.00
O2       0.89150    0.32680    0.93850   1.00
O2       0.82680    0.39150    0.93850   1.00
O2       0.89150    0.39150    1.00320   1.00
O2       1.00320    0.43850    0.93850   1.00
O2       0.93850    0.50320    0.93850   1.00
O2       0.93850    0.43850    1.00320   1.00
C1       0.91500    0.41500    0.80980   1.00
C1       0.91500    0.30980    0.91500   1.00
C1       1.02020    0.41500    0.91500   1.00
C1       0.80980    0.41500    0.91500   1.00
C1       0.91500    0.52020    0.91500   1.00
C1       0.91500    0.41500    1.02020   1.00
O1       0.41500    0.91500    0.91500   1.00
Zn1      0.44780    0.88220    0.88220   1.00
Zn1      0.38220    0.94780    0.88220   1.00
Zn1      0.38220    0.88220    0.94780   1.00
Zn1      0.44780    0.94780    0.94780   1.00
O2       0.43850    0.89150    0.82680   1.00
O2       0.43850    0.82680    0.89150   1.00
O2       0.50320    0.89150    0.89150   1.00
O2       0.39150    0.93850    0.82680   1.00
O2       0.32680    0.93850    0.89150   1.00
O2       0.39150    1.00320    0.89150   1.00
O2       0.39150    0.82680    0.93850   1.00
O2       0.32680    0.89150    0.93850   1.00
O2       0.39150    0.89150    1.00320   1.00
O2       0.50320    0.93850    0.93850   1.00
O2       0.43850    1.00320    0.93850   1.00
O2       0.43850    0.93850    1.00320   1.00
C1       0.41500    0.91500    0.80980   1.00
C1       0.41500    0.80980    0.91500   1.00
C1       0.52020    0.91500    0.91500   1.00
C1       0.30980    0.91500    0.91500   1.00
C1       0.41500    1.02020    0.91500   1.00
C1       0.41500    0.91500    1.02020   1.00
C4       0.75005    0.74991    0.97915   1.00
C4       0.74995    0.75009    1.02085   1.00
C3       0.78381    0.74154    0.95708   1.00
C3       0.73452    0.71845    1.04225   1.00
C3       0.71557    0.75827    0.95816   1.00
C3a      0.76587    0.78187    1.04263   1.00
C2       0.74865    0.75067    0.89483   1.00
C2       0.75115    0.74909    1.10517   1.00
C3       0.78306    0.74195    0.91566   1.00
C3       0.73515    0.71801    1.08359   1.00
C3       0.71494    0.75881    0.91680   1.00
C3       0.76633    0.78080    1.08415   1.00
H1       0.81085    0.73471    0.97192   1.00
H1       0.72215    0.69378    1.02685   1.00
H1       0.80952    0.73546    0.89968   1.00
H1       0.72312    0.69316    1.09895   1.00
H1       0.68806    0.76589    0.90179   1.00
H1       0.77833    0.80507    1.10043   1.00
C5       0.78186    0.81774    1.02239   1.00
H1       0.68920    0.76546    0.97401   1.00
H2       0.79648    0.83751    1.04354   1.00
H2       0.80454    0.80878    1.00103   1.00
N1       0.75056    0.83931    1.00292   1.00
C6       0.71875    0.85468    1.02012   1.00
C6       0.74852    0.84773    0.96460   1.00
C6       0.69590    0.87284    0.99243   1.00
C6       0.71483    0.86840    0.95711   1.00
H3       0.71231    0.85265    1.05099   1.00
H3       0.76995    0.83899    0.94309   1.00
H3       0.66852    0.88769    0.99741   1.00
H3       0.70514    0.87901    0.92903   1.00
C4       0.74991    0.97915    0.75005   1.00
C4       0.75009    1.02085    0.74995   1.00
C3       0.74154    0.95708    0.78381   1.00
C3       0.71845    1.04225    0.73452   1.00
C3       0.75827    0.95816    0.71557   1.00
C3a      0.78187    1.04263    0.76587   1.00
C2       0.75067    0.89483    0.74865   1.00
C2       0.74909    1.10517    0.75115   1.00
C3       0.74195    0.91566    0.78306   1.00
C3       0.71801    1.08359    0.73515   1.00
C3       0.75881    0.91680    0.71494   1.00
C3       0.78080    1.08415    0.76633   1.00
H1       0.73471    0.97192    0.81085   1.00
H1       0.69378    1.02685    0.72215   1.00
H1       0.73546    0.89968    0.80952   1.00
H1       0.69316    1.09895    0.72312   1.00
H1       0.76589    0.90179    0.68806   1.00
H1       0.80507    1.10043    0.77833   1.00
C5       0.81774    1.02239    0.78186   1.00
H1       0.76546    0.97401    0.68920   1.00
H2       0.83751    1.04354    0.79648   1.00
H2       0.80878    1.00103    0.80454   1.00
N1       0.83931    1.00292    0.75056   1.00
C6       0.85468    1.02012    0.71875   1.00
C6       0.84773    0.96460    0.74852   1.00
C6       0.87284    0.99243    0.69590   1.00
C6       0.86840    0.95711    0.71483   1.00
H3       0.85265    1.05099    0.71231   1.00
H3       0.83899    0.94309    0.76995   1.00
H3       0.88769    0.99741    0.66852   1.00
H3       0.87901    0.92903    0.70514   1.00
C4       0.52085    0.75005    0.75009   1.00
C4       0.47915    0.74995    0.74991   1.00
C3       0.54292    0.78381    0.75846   1.00
C3       0.45775    0.73452    0.78155   1.00
C3       0.54184    0.71557    0.74173   1.00
C3a      0.45737    0.76587    0.71813   1.00
C2       0.60517    0.74865    0.74933   1.00
C2       0.39483    0.75115    0.75091   1.00
C3       0.58434    0.78306    0.75805   1.00
C3       0.41641    0.73515    0.78199   1.00
C3       0.58320    0.71494    0.74119   1.00
C3       0.41585    0.76633    0.71920   1.00
H1       0.52808    0.81085    0.76529   1.00
H1       0.47315    0.72215    0.80622   1.00
H1       0.60032    0.80952    0.76454   1.00
H1       0.40105    0.72312    0.80684   1.00
H1       0.59821    0.68806    0.73411   1.00
H1       0.39957    0.77833    0.69493   1.00
C5       0.47761    0.78186    0.68226   1.00
H1       0.52599    0.68920    0.73454   1.00
H2       0.45646    0.79648    0.66249   1.00
H2       0.49897    0.80454    0.69122   1.00
N1       0.49708    0.75056    0.66069   1.00
C6       0.47988    0.71875    0.64532   1.00
C6       0.53540    0.74852    0.65227   1.00
C6       0.50757    0.69590    0.62716   1.00
C6       0.54289    0.71483    0.63160   1.00
H3       0.44901    0.71231    0.64735   1.00
H3       0.55691    0.76995    0.66101   1.00
H3       0.50259    0.66852    0.61231   1.00
H3       0.57097    0.70514    0.62099   1.00
C4       0.97915    0.75005    0.74991   1.00
C4       1.02085    0.74995    0.75009   1.00
C3       0.95708    0.78381    0.74154   1.00
C3       1.04225    0.73452    0.71845   1.00
C3       0.95816    0.71557    0.75827   1.00
C3a      1.04263    0.76587    0.78187   1.00
C2       0.89483    0.74865    0.75067   1.00
C2       1.10517    0.75115    0.74909   1.00
C3       0.91566    0.78306    0.74195   1.00
C3       1.08359    0.73515    0.71801   1.00
C3       0.91680    0.71494    0.75881   1.00
C3       1.08415    0.76633    0.78080   1.00
H1       0.97192    0.81085    0.73471   1.00
H1       1.02685    0.72215    0.69378   1.00
H1       0.89968    0.80952    0.73546   1.00
H1       1.09895    0.72312    0.69316   1.00
H1       0.90179    0.68806    0.76589   1.00
H1       1.10043    0.77833    0.80507   1.00
C5       1.02239    0.78186    0.81774   1.00
H1       0.97401    0.68920    0.76546   1.00
H2       1.04354    0.79648    0.83751   1.00
H2       1.00103    0.80454    0.80878   1.00
N1       1.00292    0.75056    0.83931   1.00
C6       1.02012    0.71875    0.85468   1.00
C6       0.96460    0.74852    0.84773   1.00
C6       0.99243    0.69590    0.87284   1.00
C6       0.95711    0.71483    0.86840   1.00
H3       1.05099    0.71231    0.85265   1.00
H3       0.94309    0.76995    0.83899   1.00
H3       0.99741    0.66852    0.88769   1.00
H3       0.92903    0.70514    0.87901   1.00
C4       0.75009    0.52085    0.75005   1.00
C4       0.74991    0.47915    0.74995   1.00
C3       0.75846    0.54292    0.78381   1.00
C3       0.78155    0.45775    0.73452   1.00
C3       0.74173    0.54184    0.71557   1.00
C3a      0.71813    0.45737    0.76587   1.00
C2       0.74933    0.60517    0.74865   1.00
C2       0.75091    0.39483    0.75115   1.00
C3       0.75805    0.58434    0.78306   1.00
C3       0.78199    0.41641    0.73515   1.00
C3       0.74119    0.58320    0.71494   1.00
C3       0.71920    0.41585    0.76633   1.00
H1       0.76529    0.52808    0.81085   1.00
H1       0.80622    0.47315    0.72215   1.00
H1       0.76454    0.60032    0.80952   1.00
H1       0.80684    0.40105    0.72312   1.00
H1       0.73411    0.59821    0.68806   1.00
H1       0.69493    0.39957    0.77833   1.00
C5       0.68226    0.47761    0.78186   1.00
H1       0.73454    0.52599    0.68920   1.00
H2       0.66249    0.45646    0.79648   1.00
H2       0.69122    0.49897    0.80454   1.00
N1       0.66069    0.49708    0.75056   1.00
C6       0.64532    0.47988    0.71875   1.00
C6       0.65227    0.53540    0.74852   1.00
C6       0.62716    0.50757    0.69590   1.00
C6       0.63160    0.54289    0.71483   1.00
H3       0.64735    0.44901    0.71231   1.00
H3       0.66101    0.55691    0.76995   1.00
H3       0.61231    0.50259    0.66852   1.00
H3       0.62099    0.57097    0.70514   1.00
C4       0.75005    0.75009    0.52085   1.00
C4       0.74995    0.74991    0.47915   1.00
C3       0.78381    0.75846    0.54292   1.00
C3       0.73452    0.78155    0.45775   1.00
C3       0.71557    0.74173    0.54184   1.00
C3a      0.76587    0.71813    0.45737   1.00
C2       0.74865    0.74933    0.60517   1.00
C2       0.75115    0.75091    0.39483   1.00
C3       0.78306    0.75805    0.58434   1.00
C3       0.73515    0.78199    0.41641   1.00
C3       0.71494    0.74119    0.58320   1.00
C3       0.76633    0.71920    0.41585   1.00
H1       0.81085    0.76529    0.52808   1.00
H1       0.72215    0.80622    0.47315   1.00
H1       0.80952    0.76454    0.60032   1.00
H1       0.72312    0.80684    0.40105   1.00
H1       0.68806    0.73411    0.59821   1.00
H1       0.77833    0.69493    0.39957   1.00
C5       0.78186    0.68226    0.47761   1.00
H1       0.68920    0.73454    0.52599   1.00
H2       0.79648    0.66249    0.45646   1.00
H2       0.80454    0.69122    0.49897   1.00
N1       0.75056    0.66069    0.49708   1.00
C6       0.71875    0.64532    0.47988   1.00
C6       0.74852    0.65227    0.53540   1.00
C6       0.69590    0.62716    0.50757   1.00
C6       0.71483    0.63160    0.54289   1.00
H3       0.71231    0.64735    0.44901   1.00
H3       0.76995    0.66101    0.55691   1.00
H3       0.66852    0.61231    0.50259   1.00
H3       0.70514    0.62099    0.57097   1.00
C4       0.25005    0.24991    0.97915   1.00
C4       0.24995    0.25009    1.02085   1.00
C3       0.28381    0.24154    0.95708   1.00
C3       0.23452    0.21845    1.04225   1.00
C3       0.21557    0.25827    0.95816   1.00
C3a      0.26587    0.28187    1.04263   1.00
C2       0.24865    0.25067    0.89483   1.00
C2       0.25115    0.24909    1.10517   1.00
C3       0.28306    0.24195    0.91566   1.00
C3       0.23515    0.21801    1.08359   1.00
C3       0.21494    0.25881    0.91680   1.00
C3       0.26633    0.28080    1.08415   1.00
H1       0.31085    0.23471    0.97192   1.00
H1       0.22215    0.19378    1.02685   1.00
H1       0.30952    0.23546    0.89968   1.00
H1       0.22312    0.19316    1.09895   1.00
H1       0.18806    0.26589    0.90179   1.00
H1       0.27833    0.30507    1.10043   1.00
C5       0.28186    0.31774    1.02239   1.00
H1       0.18920    0.26546    0.97401   1.00
H2       0.29648    0.33751    1.04354   1.00
H2       0.30454    0.30878    1.00103   1.00
N1       0.25056    0.33931    1.00292   1.00
C6       0.21875    0.35468    1.02012   1.00
C6       0.24852    0.34773    0.96460   1.00
C6       0.19590    0.37284    0.99243   1.00
C6       0.21483    0.36840    0.95711   1.00
H3       0.21231    0.35265    1.05099   1.00
H3       0.26995    0.33899    0.94309   1.00
H3       0.16852    0.38769    0.99741   1.00
H3       0.20514    0.37901    0.92903   1.00
C4       0.24991    0.47915    0.75005   1.00
C4       0.25009    0.52085    0.74995   1.00
C3       0.24154    0.45708    0.78381   1.00
C3       0.21845    0.54225    0.73452   1.00
C3       0.25827    0.45816    0.71557   1.00
C3a      0.28187    0.54263    0.76587   1.00
C2       0.25067    0.39483    0.74865   1.00
C2       0.24909    0.60517    0.75115   1.00
C3       0.24195    0.41566    0.78306   1.00
C3       0.21801    0.58359    0.73515   1.00
C3       0.25881    0.41680    0.71494   1.00
C3       0.28080    0.58415    0.76633   1.00
H1       0.23471    0.47192    0.81085   1.00
H1       0.19378    0.52685    0.72215   1.00
H1       0.23546    0.39968    0.80952   1.00
H1       0.19316    0.59895    0.72312   1.00
H1       0.26589    0.40179    0.68806   1.00
H1       0.30507    0.60043    0.77833   1.00
C5       0.31774    0.52239    0.78186   1.00
H1       0.26546    0.47401    0.68920   1.00
H2       0.33751    0.54354    0.79648   1.00
H2       0.30878    0.50103    0.80454   1.00
N1       0.33931    0.50292    0.75056   1.00
C6       0.35468    0.52012    0.71875   1.00
C6       0.34773    0.46460    0.74852   1.00
C6       0.37284    0.49243    0.69590   1.00
C6       0.36840    0.45711    0.71483   1.00
H3       0.35265    0.55099    0.71231   1.00
H3       0.33899    0.44309    0.76995   1.00
H3       0.38769    0.49741    0.66852   1.00
H3       0.37901    0.42903    0.70514   1.00
C4       0.02085    0.25005    0.75009   1.00
C4       -0.02085   0.24995    0.74991   1.00
C3       0.04292    0.28381    0.75846   1.00
C3       -0.04225   0.23452    0.78155   1.00
C3       0.04184    0.21557    0.74173   1.00
C3a      -0.04263   0.26587    0.71813   1.00
C2       0.10517    0.24865    0.74933   1.00
C2       -0.10517   0.25115    0.75091   1.00
C3       0.08434    0.28306    0.75805   1.00
C3       -0.08359   0.23515    0.78199   1.00
C3       0.08320    0.21494    0.74119   1.00
C3       -0.08415   0.26633    0.71920   1.00
H1       0.02808    0.31085    0.76529   1.00
H1       -0.02685   0.22215    0.80622   1.00
H1       0.10032    0.30952    0.76454   1.00
H1       -0.09895   0.22312    0.80684   1.00
H1       0.09821    0.18806    0.73411   1.00
H1       -0.10043   0.27833    0.69493   1.00
C5       -0.02239   0.28186    0.68226   1.00
H1       0.02599    0.18920    0.73454   1.00
H2       -0.04354   0.29648    0.66249   1.00
H2       -0.00103   0.30454    0.69122   1.00
N1       -0.00292   0.25056    0.66069   1.00
C6       -0.02012   0.21875    0.64532   1.00
C6       0.03540    0.24852    0.65227   1.00
C6       0.00757    0.19590    0.62716   1.00
C6       0.04289    0.21483    0.63160   1.00
H3       -0.05099   0.21231    0.64735   1.00
H3       0.05691    0.26995    0.66101   1.00
H3       0.00259    0.16852    0.61231   1.00
H3       0.07097    0.20514    0.62099   1.00
C4       0.47915    0.25005    0.74991   1.00
C4       0.52085    0.24995    0.75009   1.00
C3       0.45708    0.28381    0.74154   1.00
C3       0.54225    0.23452    0.71845   1.00
C3       0.45816    0.21557    0.75827   1.00
C3a      0.54263    0.26587    0.78187   1.00
C2       0.39483    0.24865    0.75067   1.00
C2       0.60517    0.25115    0.74909   1.00
C3       0.41566    0.28306    0.74195   1.00
C3       0.58359    0.23515    0.71801   1.00
C3       0.41680    0.21494    0.75881   1.00
C3       0.58415    0.26633    0.78080   1.00
H1       0.47192    0.31085    0.73471   1.00
H1       0.52685    0.22215    0.69378   1.00
H1       0.39968    0.30952    0.73546   1.00
H1       0.59895    0.22312    0.69316   1.00
H1       0.40179    0.18806    0.76589   1.00
H1       0.60043    0.27833    0.80507   1.00
C5       0.52239    0.28186    0.81774   1.00
H1       0.47401    0.18920    0.76546   1.00
H2       0.54354    0.29648    0.83751   1.00
H2       0.50103    0.30454    0.80878   1.00
N1       0.50292    0.25056    0.83931   1.00
C6       0.52012    0.21875    0.85468   1.00
C6       0.46460    0.24852    0.84773   1.00
C6       0.49243    0.19590    0.87284   1.00
C6       0.45711    0.21483    0.86840   1.00
H3       0.55099    0.21231    0.85265   1.00
H3       0.44309    0.26995    0.83899   1.00
H3       0.49741    0.16852    0.88769   1.00
H3       0.42903    0.20514    0.87901   1.00
C4       0.25009    0.02085    0.75005   1.00
C4       0.24991    -0.02085   0.74995   1.00
C3       0.25846    0.04292    0.78381   1.00
C3       0.28155    -0.04225   0.73452   1.00
C3       0.24173    0.04184    0.71557   1.00
C3a      0.21813    -0.04263   0.76587   1.00
C2       0.24933    0.10517    0.74865   1.00
C2       0.25091    -0.10517   0.75115   1.00
C3       0.25805    0.08434    0.78306   1.00
C3       0.28199    -0.08359   0.73515   1.00
C3       0.24119    0.08320    0.71494   1.00
C3       0.21920    -0.08415   0.76633   1.00
H1       0.26529    0.02808    0.81085   1.00
H1       0.30622    -0.02685   0.72215   1.00
H1       0.26454    0.10032    0.80952   1.00
H1       0.30684    -0.09895   0.72312   1.00
H1       0.23411    0.09821    0.68806   1.00
H1       0.19493    -0.10043   0.77833   1.00
C5       0.18226    -0.02239   0.78186   1.00
H1       0.23454    0.02599    0.68920   1.00
H2       0.16249    -0.04354   0.79648   1.00
H2       0.19122    -0.00103   0.80454   1.00
N1       0.16069    -0.00292   0.75056   1.00
C6       0.14532    -0.02012   0.71875   1.00
C6       0.15227    0.03540    0.74852   1.00
C6       0.12716    0.00757    0.69590   1.00
C6       0.13160    0.04289    0.71483   1.00
H3       0.14735    -0.05099   0.71231   1.00
H3       0.16101    0.05691    0.76995   1.00
H3       0.11231    0.00259    0.66852   1.00
H3       0.12099    0.07097    0.70514   1.00
C4       0.25005    0.25009    0.52085   1.00
C4       0.24995    0.24991    0.47915   1.00
C3       0.28381    0.25846    0.54292   1.00
C3       0.23452    0.28155    0.45775   1.00
C3       0.21557    0.24173    0.54184   1.00
C3a      0.26587    0.21813    0.45737   1.00
C2       0.24865    0.24933    0.60517   1.00
C2       0.25115    0.25091    0.39483   1.00
C3       0.28306    0.25805    0.58434   1.00
C3       0.23515    0.28199    0.41641   1.00
C3       0.21494    0.24119    0.58320   1.00
C3       0.26633    0.21920    0.41585   1.00
H1       0.31085    0.26529    0.52808   1.00
H1       0.22215    0.30622    0.47315   1.00
H1       0.30952    0.26454    0.60032   1.00
H1       0.22312    0.30684    0.40105   1.00
H1       0.18806    0.23411    0.59821   1.00
H1       0.27833    0.19493    0.39957   1.00
C5       0.28186    0.18226    0.47761   1.00
H1       0.18920    0.23454    0.52599   1.00
H2       0.29648    0.16249    0.45646   1.00
H2       0.30454    0.19122    0.49897   1.00
N1       0.25056    0.16069    0.49708   1.00
C6       0.21875    0.14532    0.47988   1.00
C6       0.24852    0.15227    0.53540   1.00
C6       0.19590    0.12716    0.50757   1.00
C6       0.21483    0.13160    0.54289   1.00
H3       0.21231    0.14735    0.44901   1.00
H3       0.26995    0.16101    0.55691   1.00
H3       0.16852    0.11231    0.50259   1.00
H3       0.20514    0.12099    0.57097   1.00
C4       0.25005    0.74991    0.47915   1.00
C4       0.24995    0.75009    0.52085   1.00
C3       0.28381    0.74154    0.45708   1.00
C3       0.23452    0.71845    0.54225   1.00
C3       0.21557    0.75827    0.45816   1.00
C3a      0.26587    0.78187    0.54263   1.00
C2       0.24865    0.75067    0.39483   1.00
C2       0.25115    0.74909    0.60517   1.00
C3       0.28306    0.74195    0.41566   1.00
C3       0.23515    0.71801    0.58359   1.00
C3       0.21494    0.75881    0.41680   1.00
C3       0.26633    0.78080    0.58415   1.00
H1       0.31085    0.73471    0.47192   1.00
H1       0.22215    0.69378    0.52685   1.00
H1       0.30952    0.73546    0.39968   1.00
H1       0.22312    0.69316    0.59895   1.00
H1       0.18806    0.76589    0.40179   1.00
H1       0.27833    0.80507    0.60043   1.00
C5       0.28186    0.81774    0.52239   1.00
H1       0.18920    0.76546    0.47401   1.00
H2       0.29648    0.83751    0.54354   1.00
H2       0.30454    0.80878    0.50103   1.00
N1       0.25056    0.83931    0.50292   1.00
C6       0.21875    0.85468    0.52012   1.00
C6       0.24852    0.84773    0.46460   1.00
C6       0.19590    0.87284    0.49243   1.00
C6       0.21483    0.86840    0.45711   1.00
H3       0.21231    0.85265    0.55099   1.00
H3       0.26995    0.83899    0.44309   1.00
H3       0.16852    0.88769    0.49741   1.00
H3       0.20514    0.87901    0.42903   1.00
C4       0.24991    0.97915    0.25005   1.00
C4       0.25009    1.02085    0.24995   1.00
C3       0.24154    0.95708    0.28381   1.00
C3       0.21845    1.04225    0.23452   1.00
C3       0.25827    0.95816    0.21557   1.00
C3a      0.28187    1.04263    0.26587   1.00
C2       0.25067    0.89483    0.24865   1.00
C2       0.24909    1.10517    0.25115   1.00
C3       0.24195    0.91566    0.28306   1.00
C3       0.21801    1.08359    0.23515   1.00
C3       0.25881    0.91680    0.21494   1.00
C3       0.28080    1.08415    0.26633   1.00
H1       0.23471    0.97192    0.31085   1.00
H1       0.19378    1.02685    0.22215   1.00
H1       0.23546    0.89968    0.30952   1.00
H1       0.19316    1.09895    0.22312   1.00
H1       0.26589    0.90179    0.18806   1.00
H1       0.30507    1.10043    0.27833   1.00
C5       0.31774    1.02239    0.28186   1.00
H1       0.26546    0.97401    0.18920   1.00
H2       0.33751    1.04354    0.29648   1.00
H2       0.30878    1.00103    0.30454   1.00
N1       0.33931    1.00292    0.25056   1.00
C6       0.35468    1.02012    0.21875   1.00
C6       0.34773    0.96460    0.24852   1.00
C6       0.37284    0.99243    0.19590   1.00
C6       0.36840    0.95711    0.21483   1.00
H3       0.35265    1.05099    0.21231   1.00
H3       0.33899    0.94309    0.26995   1.00
H3       0.38769    0.99741    0.16852   1.00
H3       0.37901    0.92903    0.20514   1.00
C4       0.02085    0.75005    0.25009   1.00
C4       -0.02085   0.74995    0.24991   1.00
C3       0.04292    0.78381    0.25846   1.00
C3       -0.04225   0.73452    0.28155   1.00
C3       0.04184    0.71557    0.24173   1.00
C3a      -0.04263   0.76587    0.21813   1.00
C2       0.10517    0.74865    0.24933   1.00
C2       -0.10517   0.75115    0.25091   1.00
C3       0.08434    0.78306    0.25805   1.00
C3       -0.08359   0.73515    0.28199   1.00
C3       0.08320    0.71494    0.24119   1.00
C3       -0.08415   0.76633    0.21920   1.00
H1       0.02808    0.81085    0.26529   1.00
H1       -0.02685   0.72215    0.30622   1.00
H1       0.10032    0.80952    0.26454   1.00
H1       -0.09895   0.72312    0.30684   1.00
H1       0.09821    0.68806    0.23411   1.00
H1       -0.10043   0.77833    0.19493   1.00
C5       -0.02239   0.78186    0.18226   1.00
H1       0.02599    0.68920    0.23454   1.00
H2       -0.04354   0.79648    0.16249   1.00
H2       -0.00103   0.80454    0.19122   1.00
N1       -0.00292   0.75056    0.16069   1.00
C6       -0.02012   0.71875    0.14532   1.00
C6       0.03540    0.74852    0.15227   1.00
C6       0.00757    0.69590    0.12716   1.00
C6       0.04289    0.71483    0.13160   1.00
H3       -0.05099   0.71231    0.14735   1.00
H3       0.05691    0.76995    0.16101   1.00
H3       0.00259    0.66852    0.11231   1.00
H3       0.07097    0.70514    0.12099   1.00
C4       0.47915    0.75005    0.24991   1.00
C4       0.52085    0.74995    0.25009   1.00
C3       0.45708    0.78381    0.24154   1.00
C3       0.54225    0.73452    0.21845   1.00
C3       0.45816    0.71557    0.25827   1.00
C3a      0.54263    0.76587    0.28187   1.00
C2       0.39483    0.74865    0.25067   1.00
C2       0.60517    0.75115    0.24909   1.00
C3       0.41566    0.78306    0.24195   1.00
C3       0.58359    0.73515    0.21801   1.00
C3       0.41680    0.71494    0.25881   1.00
C3       0.58415    0.76633    0.28080   1.00
H1       0.47192    0.81085    0.23471   1.00
H1       0.52685    0.72215    0.19378   1.00
H1       0.39968    0.80952    0.23546   1.00
H1       0.59895    0.72312    0.19316   1.00
H1       0.40179    0.68806    0.26589   1.00
H1       0.60043    0.77833    0.30507   1.00
C5       0.52239    0.78186    0.31774   1.00
H1       0.47401    0.68920    0.26546   1.00
H2       0.54354    0.79648    0.33751   1.00
H2       0.50103    0.80454    0.30878   1.00
N1       0.50292    0.75056    0.33931   1.00
C6       0.52012    0.71875    0.35468   1.00
C6       0.46460    0.74852    0.34773   1.00
C6       0.49243    0.69590    0.37284   1.00
C6       0.45711    0.71483    0.36840   1.00
H3       0.55099    0.71231    0.35265   1.00
H3       0.44309    0.76995    0.33899   1.00
H3       0.49741    0.66852    0.38769   1.00
H3       0.42903    0.70514    0.37901   1.00
C4       0.25009    0.52085    0.25005   1.00
C4       0.24991    0.47915    0.24995   1.00
C3       0.25846    0.54292    0.28381   1.00
C3       0.28155    0.45775    0.23452   1.00
C3       0.24173    0.54184    0.21557   1.00
C3a      0.21813    0.45737    0.26587   1.00
C2       0.24933    0.60517    0.24865   1.00
C2       0.25091    0.39483    0.25115   1.00
C3       0.25805    0.58434    0.28306   1.00
C3       0.28199    0.41641    0.23515   1.00
C3       0.24119    0.58320    0.21494   1.00
C3       0.21920    0.41585    0.26633   1.00
H1       0.26529    0.52808    0.31085   1.00
H1       0.30622    0.47315    0.22215   1.00
H1       0.26454    0.60032    0.30952   1.00
H1       0.30684    0.40105    0.22312   1.00
H1       0.23411    0.59821    0.18806   1.00
H1       0.19493    0.39957    0.27833   1.00
C5       0.18226    0.47761    0.28186   1.00
H1       0.23454    0.52599    0.18920   1.00
H2       0.16249    0.45646    0.29648   1.00
H2       0.19122    0.49897    0.30454   1.00
N1       0.16069    0.49708    0.25056   1.00
C6       0.14532    0.47988    0.21875   1.00
C6       0.15227    0.53540    0.24852   1.00
C6       0.12716    0.50757    0.19590   1.00
C6       0.13160    0.54289    0.21483   1.00
H3       0.14735    0.44901    0.21231   1.00
H3       0.16101    0.55691    0.26995   1.00
H3       0.11231    0.50259    0.16852   1.00
H3       0.12099    0.57097    0.20514   1.00
C4       0.25005    0.75009    0.02085   1.00
C4       0.24995    0.74991    -0.02085   1.00
C3       0.28381    0.75846    0.04292   1.00
C3       0.23452    0.78155    -0.04225   1.00
C3       0.21557    0.74173    0.04184   1.00
C3a      0.26587    0.71813    -0.04263   1.00
C2       0.24865    0.74933    0.10517   1.00
C2       0.25115    0.75091    -0.10517   1.00
C3       0.28306    0.75805    0.08434   1.00
C3       0.23515    0.78199    -0.08359   1.00
C3       0.21494    0.74119    0.08320   1.00
C3       0.26633    0.71920    -0.08415   1.00
H1       0.31085    0.76529    0.02808   1.00
H1       0.22215    0.80622    -0.02685   1.00
H1       0.30952    0.76454    0.10032   1.00
H1       0.22312    0.80684    -0.09895   1.00
H1       0.18806    0.73411    0.09821   1.00
H1       0.27833    0.69493    -0.10043   1.00
C5       0.28186    0.68226    -0.02239   1.00
H1       0.18920    0.73454    0.02599   1.00
H2       0.29648    0.66249    -0.04354   1.00
H2       0.30454    0.69122    -0.00103   1.00
N1       0.25056    0.66069    -0.00292   1.00
C6       0.21875    0.64532    -0.02012   1.00
C6       0.24852    0.65227    0.03540   1.00
C6       0.19590    0.62716    0.00757   1.00
C6       0.21483    0.63160    0.04289   1.00
H3       0.21231    0.64735    -0.05099   1.00
H3       0.26995    0.66101    0.05691   1.00
H3       0.16852    0.61231    0.00259   1.00
H3       0.20514    0.62099    0.07097   1.00
C4       0.75005    0.24991    0.47915   1.00
C4       0.74995    0.25009    0.52085   1.00
C3       0.78381    0.24154    0.45708   1.00
C3       0.73452    0.21845    0.54225   1.00
C3       0.71557    0.25827    0.45816   1.00
C3a      0.76587    0.28187    0.54263   1.00
C2       0.74865    0.25067    0.39483   1.00
C2       0.75115    0.24909    0.60517   1.00
C3       0.78306    0.24195    0.41566   1.00
C3       0.73515    0.21801    0.58359   1.00
C3       0.71494    0.25881    0.41680   1.00
C3       0.76633    0.28080    0.58415   1.00
H1       0.81085    0.23471    0.47192   1.00
H1       0.72215    0.19378    0.52685   1.00
H1       0.80952    0.23546    0.39968   1.00
H1       0.72312    0.19316    0.59895   1.00
H1       0.68806    0.26589    0.40179   1.00
H1       0.77833    0.30507    0.60043   1.00
C5       0.78186    0.31774    0.52239   1.00
H1       0.68920    0.26546    0.47401   1.00
H2       0.79648    0.33751    0.54354   1.00
H2       0.80454    0.30878    0.50103   1.00
N1       0.75056    0.33931    0.50292   1.00
C6       0.71875    0.35468    0.52012   1.00
C6       0.74852    0.34773    0.46460   1.00
C6       0.69590    0.37284    0.49243   1.00
C6       0.71483    0.36840    0.45711   1.00
H3       0.71231    0.35265    0.55099   1.00
H3       0.76995    0.33899    0.44309   1.00
H3       0.66852    0.38769    0.49741   1.00
H3       0.70514    0.37901    0.42903   1.00
C4       0.74991    0.47915    0.25005   1.00
C4       0.75009    0.52085    0.24995   1.00
C3       0.74154    0.45708    0.28381   1.00
C3       0.71845    0.54225    0.23452   1.00
C3       0.75827    0.45816    0.21557   1.00
C3a      0.78187    0.54263    0.26587   1.00
C2       0.75067    0.39483    0.24865   1.00
C2       0.74909    0.60517    0.25115   1.00
C3       0.74195    0.41566    0.28306   1.00
C3       0.71801    0.58359    0.23515   1.00
C3       0.75881    0.41680    0.21494   1.00
C3       0.78080    0.58415    0.26633   1.00
H1       0.73471    0.47192    0.31085   1.00
H1       0.69378    0.52685    0.22215   1.00
H1       0.73546    0.39968    0.30952   1.00
H1       0.69316    0.59895    0.22312   1.00
H1       0.76589    0.40179    0.18806   1.00
H1       0.80507    0.60043    0.27833   1.00
C5       0.81774    0.52239    0.28186   1.00
H1       0.76546    0.47401    0.18920   1.00
H2       0.83751    0.54354    0.29648   1.00
H2       0.80878    0.50103    0.30454   1.00
N1       0.83931    0.50292    0.25056   1.00
C6       0.85468    0.52012    0.21875   1.00
C6       0.84773    0.46460    0.24852   1.00
C6       0.87284    0.49243    0.19590   1.00
C6       0.86840    0.45711    0.21483   1.00
H3       0.85265    0.55099    0.21231   1.00
H3       0.83899    0.44309    0.26995   1.00
H3       0.88769    0.49741    0.16852   1.00
H3       0.87901    0.42903    0.20514   1.00
C4       0.52085    0.25005    0.25009   1.00
C4       0.47915    0.24995    0.24991   1.00
C3       0.54292    0.28381    0.25846   1.00
C3       0.45775    0.23452    0.28155   1.00
C3       0.54184    0.21557    0.24173   1.00
C3a      0.45737    0.26587    0.21813   1.00
C2       0.60517    0.24865    0.24933   1.00
C2       0.39483    0.25115    0.25091   1.00
C3       0.58434    0.28306    0.25805   1.00
C3       0.41641    0.23515    0.28199   1.00
C3       0.58320    0.21494    0.24119   1.00
C3       0.41585    0.26633    0.21920   1.00
H1       0.52808    0.31085    0.26529   1.00
H1       0.47315    0.22215    0.30622   1.00
H1       0.60032    0.30952    0.26454   1.00
H1       0.40105    0.22312    0.30684   1.00
H1       0.59821    0.18806    0.23411   1.00
H1       0.39957    0.27833    0.19493   1.00
C5       0.47761    0.28186    0.18226   1.00
H1       0.52599    0.18920    0.23454   1.00
H2       0.45646    0.29648    0.16249   1.00
H2       0.49897    0.30454    0.19122   1.00
N1       0.49708    0.25056    0.16069   1.00
C6       0.47988    0.21875    0.14532   1.00
C6       0.53540    0.24852    0.15227   1.00
C6       0.50757    0.19590    0.12716   1.00
C6       0.54289    0.21483    0.13160   1.00
H3       0.44901    0.21231    0.14735   1.00
H3       0.55691    0.26995    0.16101   1.00
H3       0.50259    0.16852    0.11231   1.00
H3       0.57097    0.20514    0.12099   1.00
C4       0.97915    0.25005    0.24991   1.00
C4       1.02085    0.24995    0.25009   1.00
C3       0.95708    0.28381    0.24154   1.00
C3       1.04225    0.23452    0.21845   1.00
C3       0.95816    0.21557    0.25827   1.00
C3a      1.04263    0.26587    0.28187   1.00
C2       0.89483    0.24865    0.25067   1.00
C2       1.10517    0.25115    0.24909   1.00
C3       0.91566    0.28306    0.24195   1.00
C3       1.08359    0.23515    0.21801   1.00
C3       0.91680    0.21494    0.25881   1.00
C3       1.08415    0.26633    0.28080   1.00
H1       0.97192    0.31085    0.23471   1.00
H1       1.02685    0.22215    0.19378   1.00
H1       0.89968    0.30952    0.23546   1.00
H1       1.09895    0.22312    0.19316   1.00
H1       0.90179    0.18806    0.26589   1.00
H1       1.10043    0.27833    0.30507   1.00
C5       1.02239    0.28186    0.31774   1.00
H1       0.97401    0.18920    0.26546   1.00
H2       1.04354    0.29648    0.33751   1.00
H2       1.00103    0.30454    0.30878   1.00
N1       1.00292    0.25056    0.33931   1.00
C6       1.02012    0.21875    0.35468   1.00
C6       0.96460    0.24852    0.34773   1.00
C6       0.99243    0.19590    0.37284   1.00
C6       0.95711    0.21483    0.36840   1.00
H3       1.05099    0.21231    0.35265   1.00
H3       0.94309    0.26995    0.33899   1.00
H3       0.99741    0.16852    0.38769   1.00
H3       0.92903    0.20514    0.37901   1.00
C4       0.75009    0.02085    0.25005   1.00
C4       0.74991    -0.02085   0.24995   1.00
C3       0.75846    0.04292    0.28381   1.00
C3       0.78155    -0.04225   0.23452   1.00
C3       0.74173    0.04184    0.21557   1.00
C3a      0.71813    -0.04263   0.26587   1.00
C2       0.74933    0.10517    0.24865   1.00
C2       0.75091    -0.10517   0.25115   1.00
C3       0.75805    0.08434    0.28306   1.00
C3       0.78199    -0.08359   0.23515   1.00
C3       0.74119    0.08320    0.21494   1.00
C3       0.71920    -0.08415   0.26633   1.00
H1       0.76529    0.02808    0.31085   1.00
H1       0.80622    -0.02685   0.22215   1.00
H1       0.76454    0.10032    0.30952   1.00
H1       0.80684    -0.09895   0.22312   1.00
H1       0.73411    0.09821    0.18806   1.00
H1       0.69493    -0.10043   0.27833   1.00
C5       0.68226    -0.02239   0.28186   1.00
H1       0.73454    0.02599    0.18920   1.00
H2       0.66249    -0.04354   0.29648   1.00
H2       0.69122    -0.00103   0.30454   1.00
N1       0.66069    -0.00292   0.25056   1.00
C6       0.64532    -0.02012   0.21875   1.00
C6       0.65227    0.03540    0.24852   1.00
C6       0.62716    0.00757    0.19590   1.00
C6       0.63160    0.04289    0.21483   1.00
H3       0.64735    -0.05099   0.21231   1.00
H3       0.66101    0.05691    0.26995   1.00
H3       0.61231    0.00259    0.16852   1.00
H3       0.62099    0.07097    0.20514   1.00
C4       0.75005    0.25009    0.02085   1.00
C4       0.74995    0.24991    -0.02085   1.00
C3       0.78381    0.25846    0.04292   1.00
C3       0.73452    0.28155    -0.04225   1.00
C3       0.71557    0.24173    0.04184   1.00
C3a      0.76587    0.21813    -0.04263   1.00
C2       0.74865    0.24933    0.10517   1.00
C2       0.75115    0.25091    -0.10517   1.00
C3       0.78306    0.25805    0.08434   1.00
C3       0.73515    0.28199    -0.08359   1.00
C3       0.71494    0.24119    0.08320   1.00
C3       0.76633    0.21920    -0.08415   1.00
H1       0.81085    0.26529    0.02808   1.00
H1       0.72215    0.30622    -0.02685   1.00
H1       0.80952    0.26454    0.10032   1.00
H1       0.72312    0.30684    -0.09895   1.00
H1       0.68806    0.23411    0.09821   1.00
H1       0.77833    0.19493    -0.10043   1.00
C5       0.78186    0.18226    -0.02239   1.00
H1       0.68920    0.23454    0.02599   1.00
H2       0.79648    0.16249    -0.04354   1.00
H2       0.80454    0.19122    -0.00103   1.00
N1       0.75056    0.16069    -0.00292   1.00
C6       0.71875    0.14532    -0.02012   1.00
C6       0.74852    0.15227    0.03540   1.00
C6       0.69590    0.12716    0.00757   1.00
C6       0.71483    0.13160    0.04289   1.00
H3       0.71231    0.14735    -0.05099   1.00
H3       0.76995    0.16101    0.05691   1.00
H3       0.66852    0.11231    0.00259   1.00
H3       0.70514    0.12099    0.07097   1.00
C4       0.91505    0.91491    1.14415   1.00
C4       0.91495    0.91509    1.18585   1.00
C3       0.94881    0.90654    1.12208   1.00
C3       0.89952    0.88345    1.20725   1.00
C3       0.88057    0.92327    1.12316   1.00
C3a      0.93087    0.94687    1.20763   1.00
C2       0.91365    0.91567    1.05983   1.00
C2       0.91615    0.91409    1.27017   1.00
C3       0.94806    0.90695    1.08066   1.00
C3       0.90015    0.88301    1.24859   1.00
C3       0.87994    0.92381    1.08180   1.00
C3       0.93133    0.94580    1.24915   1.00
H1       0.97585    0.89971    1.13692   1.00
H1       0.88715    0.85878    1.19185   1.00
H1       0.97452    0.90046    1.06468   1.00
H1       0.88812    0.85816    1.26395   1.00
H1       0.85306    0.93089    1.06679   1.00
H1       0.94333    0.97007    1.26543   1.00
C5       0.94686    0.98274    1.18739   1.00
H1       0.85420    0.93046    1.13901   1.00
H2       0.96148    1.00251    1.20854   1.00
H2       0.96954    0.97378    1.16603   1.00
N1       0.91556    1.00431    1.16792   1.00
C6       0.88375    1.01968    1.18512   1.00
C6       0.91352    1.01273    1.12960   1.00
C6       0.86090    1.03784    1.15743   1.00
C6       0.87983    1.03340    1.12211   1.00
H3       0.87731    1.01765    1.21599   1.00
H3       0.93495    1.00399    1.10809   1.00
H3       0.83352    1.05269    1.16241   1.00
H3       0.87014    1.04401    1.09403   1.00
C4       0.91491    1.14415    0.91505   1.00
C4       0.91509    1.18585    0.91495   1.00
C3       0.90654    1.12208    0.94881   1.00
C3       0.88345    1.20725    0.89952   1.00
C3       0.92327    1.12316    0.88057   1.00
C3a      0.94687    1.20763    0.93087   1.00
C2       0.91567    1.05983    0.91365   1.00
C2       0.91409    1.27017    0.91615   1.00
C3       0.90695    1.08066    0.94806   1.00
C3       0.88301    1.24859    0.90015   1.00
C3       0.92381    1.08180    0.87994   1.00
C3       0.94580    1.24915    0.93133   1.00
H1       0.89971    1.13692    0.97585   1.00
H1       0.85878    1.19185    0.88715   1.00
H1       0.90046    1.06468    0.97452   1.00
H1       0.85816    1.26395    0.88812   1.00
H1       0.93089    1.06679    0.85306   1.00
H1       0.97007    1.26543    0.94333   1.00
C5       0.98274    1.18739    0.94686   1.00
H1       0.93046    1.13901    0.85420   1.00
H2       1.00251    1.20854    0.96148   1.00
H2       0.97378    1.16603    0.96954   1.00
N1       1.00431    1.16792    0.91556   1.00
C6       1.01968    1.18512    0.88375   1.00
C6       1.01273    1.12960    0.91352   1.00
C6       1.03784    1.15743    0.86090   1.00
C6       1.03340    1.12211    0.87983   1.00
H3       1.01765    1.21599    0.87731   1.00
H3       1.00399    1.10809    0.93495   1.00
H3       1.05269    1.16241    0.83352   1.00
H3       1.04401    1.09403    0.87014   1.00
C4       0.68585    0.91505    0.91509   1.00
C4       0.64415    0.91495    0.91491   1.00
C3       0.70792    0.94881    0.92346   1.00
C3       0.62275    0.89952    0.94655   1.00
C3       0.70684    0.88057    0.90673   1.00
C3a      0.62237    0.93087    0.88313   1.00
C2       0.77017    0.91365    0.91433   1.00
C2       0.55983    0.91615    0.91591   1.00
C3       0.74934    0.94806    0.92305   1.00
C3       0.58141    0.90015    0.94699   1.00
C3       0.74820    0.87994    0.90619   1.00
C3       0.58085    0.93133    0.88420   1.00
H1       0.69308    0.97585    0.93029   1.00
H1       0.63815    0.88715    0.97122   1.00
H1       0.76532    0.97452    0.92954   1.00
H1       0.56605    0.88812    0.97184   1.00
H1       0.76321    0.85306    0.89911   1.00
H1       0.56457    0.94333    0.85993   1.00
C5       0.64261    0.94686    0.84726   1.00
H1       0.69099    0.85420    0.89954   1.00
H2       0.62146    0.96148    0.82749   1.00
H2       0.66397    0.96954    0.85622   1.00
N1       0.66208    0.91556    0.82569   1.00
C6       0.64488    0.88375    0.81032   1.00
C6       0.70040    0.91352    0.81727   1.00
C6       0.67257    0.86090    0.79216   1.00
C6       0.70789    0.87983    0.79660   1.00
H3       0.61401    0.87731    0.81235   1.00
H3       0.72191    0.93495    0.82601   1.00
H3       0.66759    0.83352    0.77731   1.00
H3       0.73597    0.87014    0.78599   1.00
C4       1.14415    0.91505    0.91491   1.00
C4       1.18585    0.91495    0.91509   1.00
C3       1.12208    0.94881    0.90654   1.00
C3       1.20725    0.89952    0.88345   1.00
C3       1.12316    0.88057    0.92327   1.00
C3a      1.20763    0.93087    0.94687   1.00
C2       1.05983    0.91365    0.91567   1.00
C2       1.27017    0.91615    0.91409   1.00
C3       1.08066    0.94806    0.90695   1.00
C3       1.24859    0.90015    0.88301   1.00
C3       1.08180    0.87994    0.92381   1.00
C3       1.24915    0.93133    0.94580   1.00
H1       1.13692    0.97585    0.89971   1.00
H1       1.19185    0.88715    0.85878   1.00
H1       1.06468    0.97452    0.90046   1.00
H1       1.26395    0.88812    0.85816   1.00
H1       1.06679    0.85306    0.93089   1.00
H1       1.26543    0.94333    0.97007   1.00
C5       1.18739    0.94686    0.98274   1.00
H1       1.13901    0.85420    0.93046   1.00
H2       1.20854    0.96148    1.00251   1.00
H2       1.16603    0.96954    0.97378   1.00
N1       1.16792    0.91556    1.00431   1.00
C6       1.18512    0.88375    1.01968   1.00
C6       1.12960    0.91352    1.01273   1.00
C6       1.15743    0.86090    1.03784   1.00
C6       1.12211    0.87983    1.03340   1.00
H3       1.21599    0.87731    1.01765   1.00
H3       1.10809    0.93495    1.00399   1.00
H3       1.16241    0.83352    1.05269   1.00
H3       1.09403    0.87014    1.04401   1.00
C4       0.91509    0.68585    0.91505   1.00
C4       0.91491    0.64415    0.91495   1.00
C3       0.92346    0.70792    0.94881   1.00
C3       0.94655    0.62275    0.89952   1.00
C3       0.90673    0.70684    0.88057   1.00
C3a      0.88313    0.62237    0.93087   1.00
C2       0.91433    0.77017    0.91365   1.00
C2       0.91591    0.55983    0.91615   1.00
C3       0.92305    0.74934    0.94806   1.00
C3       0.94699    0.58141    0.90015   1.00
C3       0.90619    0.74820    0.87994   1.00
C3       0.88420    0.58085    0.93133   1.00
H1       0.93029    0.69308    0.97585   1.00
H1       0.97122    0.63815    0.88715   1.00
H1       0.92954    0.76532    0.97452   1.00
H1       0.97184    0.56605    0.88812   1.00
H1       0.89911    0.76321    0.85306   1.00
H1       0.85993    0.56457    0.94333   1.00
C5       0.84726    0.64261    0.94686   1.00
H1       0.89954    0.69099    0.85420   1.00
H2       0.82749    0.62146    0.96148   1.00
H2       0.85622    0.66397    0.96954   1.00
N1       0.82569    0.66208    0.91556   1.00
C6       0.81032    0.64488    0.88375   1.00
C6       0.81727    0.70040    0.91352   1.00
C6       0.79216    0.67257    0.86090   1.00
C6       0.79660    0.70789    0.87983   1.00
H3       0.81235    0.61401    0.87731   1.00
H3       0.82601    0.72191    0.93495   1.00
H3       0.77731    0.66759    0.83352   1.00
H3       0.78599    0.73597    0.87014   1.00
C4       0.91505    0.91509    0.68585   1.00
C4       0.91495    0.91491    0.64415   1.00
C3       0.94881    0.92346    0.70792   1.00
C3       0.89952    0.94655    0.62275   1.00
C3       0.88057    0.90673    0.70684   1.00
C3a      0.93087    0.88313    0.62237   1.00
C2       0.91365    0.91433    0.77017   1.00
C2       0.91615    0.91591    0.55983   1.00
C3       0.94806    0.92305    0.74934   1.00
C3       0.90015    0.94699    0.58141   1.00
C3       0.87994    0.90619    0.74820   1.00
C3       0.93133    0.88420    0.58085   1.00
H1       0.97585    0.93029    0.69308   1.00
H1       0.88715    0.97122    0.63815   1.00
H1       0.97452    0.92954    0.76532   1.00
H1       0.88812    0.97184    0.56605   1.00
H1       0.85306    0.89911    0.76321   1.00
H1       0.94333    0.85993    0.56457   1.00
C5       0.94686    0.84726    0.64261   1.00
H1       0.85420    0.89954    0.69099   1.00
H2       0.96148    0.82749    0.62146   1.00
H2       0.96954    0.85622    0.66397   1.00
N1       0.91556    0.82569    0.66208   1.00
C6       0.88375    0.81032    0.64488   1.00
C6       0.91352    0.81727    0.70040   1.00
C6       0.86090    0.79216    0.67257   1.00
C6       0.87983    0.79660    0.70789   1.00
H3       0.87731    0.81235    0.61401   1.00
H3       0.93495    0.82601    0.72191   1.00
H3       0.83352    0.77731    0.66759   1.00
H3       0.87014    0.78599    0.73597   1.00
C4       0.41505    0.41491    1.14415   1.00
C4       0.41495    0.41509    1.18585   1.00
C3       0.44881    0.40654    1.12208   1.00
C3       0.39952    0.38345    1.20725   1.00
C3       0.38057    0.42327    1.12316   1.00
C3a      0.43087    0.44687    1.20763   1.00
C2       0.41365    0.41567    1.05983   1.00
C2       0.41615    0.41409    1.27017   1.00
C3       0.44806    0.40695    1.08066   1.00
C3       0.40015    0.38301    1.24859   1.00
C3       0.37994    0.42381    1.08180   1.00
C3       0.43133    0.44580    1.24915   1.00
H1       0.47585    0.39971    1.13692   1.00
H1       0.38715    0.35878    1.19185   1.00
H1       0.47452    0.40046    1.06468   1.00
H1       0.38812    0.35816    1.26395   1.00
H1       0.35306    0.43089    1.06679   1.00
H1       0.44333    0.47007    1.26543   1.00
C5       0.44686    0.48274    1.18739   1.00
H1       0.35420    0.43046    1.13901   1.00
H2       0.46148    0.50251    1.20854   1.00
H2       0.46954    0.47378    1.16603   1.00
N1       0.41556    0.50431    1.16792   1.00
C6       0.38375    0.51968    1.18512   1.00
C6       0.41352    0.51273    1.12960   1.00
C6       0.36090    0.53784    1.15743   1.00
C6       0.37983    0.53340    1.12211   1.00
H3       0.37731    0.51765    1.21599   1.00
H3       0.43495    0.50399    1.10809   1.00
H3       0.33352    0.55269    1.16241   1.00
H3       0.37014    0.54401    1.09403   1.00
C4       0.41491    0.64415    0.91505   1.00
C4       0.41509    0.68585    0.91495   1.00
C3       0.40654    0.62208    0.94881   1.00
C3       0.38345    0.70725    0.89952   1.00
C3       0.42327    0.62316    0.88057   1.00
C3a      0.44687    0.70763    0.93087   1.00
C2       0.41567    0.55983    0.91365   1.00
C2       0.41409    0.77017    0.91615   1.00
C3       0.40695    0.58066    0.94806   1.00
C3       0.38301    0.74859    0.90015   1.00
C3       0.42381    0.58180    0.87994   1.00
C3       0.44580    0.74915    0.93133   1.00
H1       0.39971    0.63692    0.97585   1.00
H1       0.35878    0.69185    0.88715   1.00
H1       0.40046    0.56468    0.97452   1.00
H1       0.35816    0.76395    0.88812   1.00
H1       0.43089    0.56679    0.85306   1.00
H1       0.47007    0.76543    0.94333   1.00
C5       0.48274    0.68739    0.94686   1.00
H1       0.43046    0.63901    0.85420   1.00
H2       0.50251    0.70854    0.96148   1.00
H2       0.47378    0.66603    0.96954   1.00
N1       0.50431    0.66792    0.91556   1.00
C6       0.51968    0.68512    0.88375   1.00
C6       0.51273    0.62960    0.91352   1.00
C6       0.53784    0.65743    0.86090   1.00
C6       0.53340    0.62211    0.87983   1.00
H3       0.51765    0.71599    0.87731   1.00
H3       0.50399    0.60809    0.93495   1.00
H3       0.55269    0.66241    0.83352   1.00
H3       0.54401    0.59403    0.87014   1.00
C4       0.18585    0.41505    0.91509   1.00
C4       0.14415    0.41495    0.91491   1.00
C3       0.20792    0.44881    0.92346   1.00
C3       0.12275    0.39952    0.94655   1.00
C3       0.20684    0.38057    0.90673   1.00
C3a      0.12237    0.43087    0.88313   1.00
C2       0.27017    0.41365    0.91433   1.00
C2       0.05983    0.41615    0.91591   1.00
C3       0.24934    0.44806    0.92305   1.00
C3       0.08141    0.40015    0.94699   1.00
C3       0.24820    0.37994    0.90619   1.00
C3       0.08085    0.43133    0.88420   1.00
H1       0.19308    0.47585    0.93029   1.00
H1       0.13815    0.38715    0.97122   1.00
H1       0.26532    0.47452    0.92954   1.00
H1       0.06605    0.38812    0.97184   1.00
H1       0.26321    0.35306    0.89911   1.00
H1       0.06457    0.44333    0.85993   1.00
C5       0.14261    0.44686    0.84726   1.00
H1       0.19099    0.35420    0.89954   1.00
H2       0.12146    0.46148    0.82749   1.00
H2       0.16397    0.46954    0.85622   1.00
N1       0.16208    0.41556    0.82569   1.00
C6       0.14488    0.38375    0.81032   1.00
C6       0.20040    0.41352    0.81727   1.00
C6       0.17257    0.36090    0.79216   1.00
C6       0.20789    0.37983    0.79660   1.00
H3       0.11401    0.37731    0.81235   1.00
H3       0.22191    0.43495    0.82601   1.00
H3       0.16759    0.33352    0.77731   1.00
H3       0.23597    0.37014    0.78599   1.00
C4       0.64415    0.41505    0.91491   1.00
C4       0.68585    0.41495    0.91509   1.00
C3       0.62208    0.44881    0.90654   1.00
C3       0.70725    0.39952    0.88345   1.00
C3       0.62316    0.38057    0.92327   1.00
C3a      0.70763    0.43087    0.94687   1.00
C2       0.55983    0.41365    0.91567   1.00
C2       0.77017    0.41615    0.91409   1.00
C3       0.58066    0.44806    0.90695   1.00
C3       0.74859    0.40015    0.88301   1.00
C3       0.58180    0.37994    0.92381   1.00
C3       0.74915    0.43133    0.94580   1.00
H1       0.63692    0.47585    0.89971   1.00
H1       0.69185    0.38715    0.85878   1.00
H1       0.56468    0.47452    0.90046   1.00
H1       0.76395    0.38812    0.85816   1.00
H1       0.56679    0.35306    0.93089   1.00
H1       0.76543    0.44333    0.97007   1.00
C5       0.68739    0.44686    0.98274   1.00
H1       0.63901    0.35420    0.93046   1.00
H2       0.70854    0.46148    1.00251   1.00
H2       0.66603    0.46954    0.97378   1.00
N1       0.66792    0.41556    1.00431   1.00
C6       0.68512    0.38375    1.01968   1.00
C6       0.62960    0.41352    1.01273   1.00
C6       0.65743    0.36090    1.03784   1.00
C6       0.62211    0.37983    1.03340   1.00
H3       0.71599    0.37731    1.01765   1.00
H3       0.60809    0.43495    1.00399   1.00
H3       0.66241    0.33352    1.05269   1.00
H3       0.59403    0.37014    1.04401   1.00
C4       0.41509    0.18585    0.91505   1.00
C4       0.41491    0.14415    0.91495   1.00
C3       0.42346    0.20792    0.94881   1.00
C3       0.44655    0.12275    0.89952   1.00
C3       0.40673    0.20684    0.88057   1.00
C3a      0.38313    0.12237    0.93087   1.00
C2       0.41433    0.27017    0.91365   1.00
C2       0.41591    0.05983    0.91615   1.00
C3       0.42305    0.24934    0.94806   1.00
C3       0.44699    0.08141    0.90015   1.00
C3       0.40619    0.24820    0.87994   1.00
C3       0.38420    0.08085    0.93133   1.00
H1       0.43029    0.19308    0.97585   1.00
H1       0.47122    0.13815    0.88715   1.00
H1       0.42954    0.26532    0.97452   1.00
H1       0.47184    0.06605    0.88812   1.00
H1       0.39911    0.26321    0.85306   1.00
H1       0.35993    0.06457    0.94333   1.00
C5       0.34726    0.14261    0.94686   1.00
H1       0.39954    0.19099    0.85420   1.00
H2       0.32749    0.12146    0.96148   1.00
H2       0.35622    0.16397    0.96954   1.00
N1       0.32569    0.16208    0.91556   1.00
C6       0.31032    0.14488    0.88375   1.00
C6       0.31727    0.20040    0.91352   1.00
C6       0.29216    0.17257    0.86090   1.00
C6       0.29660    0.20789    0.87983   1.00
H3       0.31235    0.11401    0.87731   1.00
H3       0.32601    0.22191    0.93495   1.00
H3       0.27731    0.16759    0.83352   1.00
H3       0.28599    0.23597    0.87014   1.00
C4       0.41505    0.41509    0.68585   1.00
C4       0.41495    0.41491    0.64415   1.00
C3       0.44881    0.42346    0.70792   1.00
C3       0.39952    0.44655    0.62275   1.00
C3       0.38057    0.40673    0.70684   1.00
C3a      0.43087    0.38313    0.62237   1.00
C2       0.41365    0.41433    0.77017   1.00
C2       0.41615    0.41591    0.55983   1.00
C3       0.44806    0.42305    0.74934   1.00
C3       0.40015    0.44699    0.58141   1.00
C3       0.37994    0.40619    0.74820   1.00
C3       0.43133    0.38420    0.58085   1.00
H1       0.47585    0.43029    0.69308   1.00
H1       0.38715    0.47122    0.63815   1.00
H1       0.47452    0.42954    0.76532   1.00
H1       0.38812    0.47184    0.56605   1.00
H1       0.35306    0.39911    0.76321   1.00
H1       0.44333    0.35993    0.56457   1.00
C5       0.44686    0.34726    0.64261   1.00
H1       0.35420    0.39954    0.69099   1.00
H2       0.46148    0.32749    0.62146   1.00
H2       0.46954    0.35622    0.66397   1.00
N1       0.41556    0.32569    0.66208   1.00
C6       0.38375    0.31032    0.64488   1.00
C6       0.41352    0.31727    0.70040   1.00
C6       0.36090    0.29216    0.67257   1.00
C6       0.37983    0.29660    0.70789   1.00
H3       0.37731    0.31235    0.61401   1.00
H3       0.43495    0.32601    0.72191   1.00
H3       0.33352    0.27731    0.66759   1.00
H3       0.37014    0.28599    0.73597   1.00
C4       0.41505    0.91491    0.64415   1.00
C4       0.41495    0.91509    0.68585   1.00
C3       0.44881    0.90654    0.62208   1.00
C3       0.39952    0.88345    0.70725   1.00
C3       0.38057    0.92327    0.62316   1.00
C3a      0.43087    0.94687    0.70763   1.00
C2       0.41365    0.91567    0.55983   1.00
C2       0.41615    0.91409    0.77017   1.00
C3       0.44806    0.90695    0.58066   1.00
C3       0.40015    0.88301    0.74859   1.00
C3       0.37994    0.92381    0.58180   1.00
C3       0.43133    0.94580    0.74915   1.00
H1       0.47585    0.89971    0.63692   1.00
H1       0.38715    0.85878    0.69185   1.00
H1       0.47452    0.90046    0.56468   1.00
H1       0.38812    0.85816    0.76395   1.00
H1       0.35306    0.93089    0.56679   1.00
H1       0.44333    0.97007    0.76543   1.00
C5       0.44686    0.98274    0.68739   1.00
H1       0.35420    0.93046    0.63901   1.00
H2       0.46148    1.00251    0.70854   1.00
H2       0.46954    0.97378    0.66603   1.00
N1       0.41556    1.00431    0.66792   1.00
C6       0.38375    1.01968    0.68512   1.00
C6       0.41352    1.01273    0.62960   1.00
C6       0.36090    1.03784    0.65743   1.00
C6       0.37983    1.03340    0.62211   1.00
H3       0.37731    1.01765    0.71599   1.00
H3       0.43495    1.00399    0.60809   1.00
H3       0.33352    1.05269    0.66241   1.00
H3       0.37014    1.04401    0.59403   1.00
C4       0.41491    1.14415    0.41505   1.00
C4       0.41509    1.18585    0.41495   1.00
C3       0.40654    1.12208    0.44881   1.00
C3       0.38345    1.20725    0.39952   1.00
C3       0.42327    1.12316    0.38057   1.00
C3a      0.44687    1.20763    0.43087   1.00
C2       0.41567    1.05983    0.41365   1.00
C2       0.41409    1.27017    0.41615   1.00
C3       0.40695    1.08066    0.44806   1.00
C3       0.38301    1.24859    0.40015   1.00
C3       0.42381    1.08180    0.37994   1.00
C3       0.44580    1.24915    0.43133   1.00
H1       0.39971    1.13692    0.47585   1.00
H1       0.35878    1.19185    0.38715   1.00
H1       0.40046    1.06468    0.47452   1.00
H1       0.35816    1.26395    0.38812   1.00
H1       0.43089    1.06679    0.35306   1.00
H1       0.47007    1.26543    0.44333   1.00
C5       0.48274    1.18739    0.44686   1.00
H1       0.43046    1.13901    0.35420   1.00
H2       0.50251    1.20854    0.46148   1.00
H2       0.47378    1.16603    0.46954   1.00
N1       0.50431    1.16792    0.41556   1.00
C6       0.51968    1.18512    0.38375   1.00
C6       0.51273    1.12960    0.41352   1.00
C6       0.53784    1.15743    0.36090   1.00
C6       0.53340    1.12211    0.37983   1.00
H3       0.51765    1.21599    0.37731   1.00
H3       0.50399    1.10809    0.43495   1.00
H3       0.55269    1.16241    0.33352   1.00
H3       0.54401    1.09403    0.37014   1.00
C4       0.18585    0.91505    0.41509   1.00
C4       0.14415    0.91495    0.41491   1.00
C3       0.20792    0.94881    0.42346   1.00
C3       0.12275    0.89952    0.44655   1.00
C3       0.20684    0.88057    0.40673   1.00
C3a      0.12237    0.93087    0.38313   1.00
C2       0.27017    0.91365    0.41433   1.00
C2       0.05983    0.91615    0.41591   1.00
C3       0.24934    0.94806    0.42305   1.00
C3       0.08141    0.90015    0.44699   1.00
C3       0.24820    0.87994    0.40619   1.00
C3       0.08085    0.93133    0.38420   1.00
H1       0.19308    0.97585    0.43029   1.00
H1       0.13815    0.88715    0.47122   1.00
H1       0.26532    0.97452    0.42954   1.00
H1       0.06605    0.88812    0.47184   1.00
H1       0.26321    0.85306    0.39911   1.00
H1       0.06457    0.94333    0.35993   1.00
C5       0.14261    0.94686    0.34726   1.00
H1       0.19099    0.85420    0.39954   1.00
H2       0.12146    0.96148    0.32749   1.00
H2       0.16397    0.96954    0.35622   1.00
N1       0.16208    0.91556    0.32569   1.00
C6       0.14488    0.88375    0.31032   1.00
C6       0.20040    0.91352    0.31727   1.00
C6       0.17257    0.86090    0.29216   1.00
C6       0.20789    0.87983    0.29660   1.00
H3       0.11401    0.87731    0.31235   1.00
H3       0.22191    0.93495    0.32601   1.00
H3       0.16759    0.83352    0.27731   1.00
H3       0.23597    0.87014    0.28599   1.00
C4       0.64415    0.91505    0.41491   1.00
C4       0.68585    0.91495    0.41509   1.00
C3       0.62208    0.94881    0.40654   1.00
C3       0.70725    0.89952    0.38345   1.00
C3       0.62316    0.88057    0.42327   1.00
C3a      0.70763    0.93087    0.44687   1.00
C2       0.55983    0.91365    0.41567   1.00
C2       0.77017    0.91615    0.41409   1.00
C3       0.58066    0.94806    0.40695   1.00
C3       0.74859    0.90015    0.38301   1.00
C3       0.58180    0.87994    0.42381   1.00
C3       0.74915    0.93133    0.44580   1.00
H1       0.63692    0.97585    0.39971   1.00
H1       0.69185    0.88715    0.35878   1.00
H1       0.56468    0.97452    0.40046   1.00
H1       0.76395    0.88812    0.35816   1.00
H1       0.56679    0.85306    0.43089   1.00
H1       0.76543    0.94333    0.47007   1.00
C5       0.68739    0.94686    0.48274   1.00
H1       0.63901    0.85420    0.43046   1.00
H2       0.70854    0.96148    0.50251   1.00
H2       0.66603    0.96954    0.47378   1.00
N1       0.66792    0.91556    0.50431   1.00
C6       0.68512    0.88375    0.51968   1.00
C6       0.62960    0.91352    0.51273   1.00
C6       0.65743    0.86090    0.53784   1.00
C6       0.62211    0.87983    0.53340   1.00
H3       0.71599    0.87731    0.51765   1.00
H3       0.60809    0.93495    0.50399   1.00
H3       0.66241    0.83352    0.55269   1.00
H3       0.59403    0.87014    0.54401   1.00
C4       0.41509    0.68585    0.41505   1.00
C4       0.41491    0.64415    0.41495   1.00
C3       0.42346    0.70792    0.44881   1.00
C3       0.44655    0.62275    0.39952   1.00
C3       0.40673    0.70684    0.38057   1.00
C3a      0.38313    0.62237    0.43087   1.00
C2       0.41433    0.77017    0.41365   1.00
C2       0.41591    0.55983    0.41615   1.00
C3       0.42305    0.74934    0.44806   1.00
C3       0.44699    0.58141    0.40015   1.00
C3       0.40619    0.74820    0.37994   1.00
C3       0.38420    0.58085    0.43133   1.00
H1       0.43029    0.69308    0.47585   1.00
H1       0.47122    0.63815    0.38715   1.00
H1       0.42954    0.76532    0.47452   1.00
H1       0.47184    0.56605    0.38812   1.00
H1       0.39911    0.76321    0.35306   1.00
H1       0.35993    0.56457    0.44333   1.00
C5       0.34726    0.64261    0.44686   1.00
H1       0.39954    0.69099    0.35420   1.00
H2       0.32749    0.62146    0.46148   1.00
H2       0.35622    0.66397    0.46954   1.00
N1       0.32569    0.66208    0.41556   1.00
C6       0.31032    0.64488    0.38375   1.00
C6       0.31727    0.70040    0.41352   1.00
C6       0.29216    0.67257    0.36090   1.00
C6       0.29660    0.70789    0.37983   1.00
H3       0.31235    0.61401    0.37731   1.00
H3       0.32601    0.72191    0.43495   1.00
H3       0.27731    0.66759    0.33352   1.00
H3       0.28599    0.73597    0.37014   1.00
C4       0.41505    0.91509    0.18585   1.00
C4       0.41495    0.91491    0.14415   1.00
C3       0.44881    0.92346    0.20792   1.00
C3       0.39952    0.94655    0.12275   1.00
C3       0.38057    0.90673    0.20684   1.00
C3a      0.43087    0.88313    0.12237   1.00
C2       0.41365    0.91433    0.27017   1.00
C2       0.41615    0.91591    0.05983   1.00
C3       0.44806    0.92305    0.24934   1.00
C3       0.40015    0.94699    0.08141   1.00
C3       0.37994    0.90619    0.24820   1.00
C3       0.43133    0.88420    0.08085   1.00
H1       0.47585    0.93029    0.19308   1.00
H1       0.38715    0.97122    0.13815   1.00
H1       0.47452    0.92954    0.26532   1.00
H1       0.38812    0.97184    0.06605   1.00
H1       0.35306    0.89911    0.26321   1.00
H1       0.44333    0.85993    0.06457   1.00
C5       0.44686    0.84726    0.14261   1.00
H1       0.35420    0.89954    0.19099   1.00
H2       0.46148    0.82749    0.12146   1.00
H2       0.46954    0.85622    0.16397   1.00
N1       0.41556    0.82569    0.16208   1.00
C6       0.38375    0.81032    0.14488   1.00
C6       0.41352    0.81727    0.20040   1.00
C6       0.36090    0.79216    0.17257   1.00
C6       0.37983    0.79660    0.20789   1.00
H3       0.37731    0.81235    0.11401   1.00
H3       0.43495    0.82601    0.22191   1.00
H3       0.33352    0.77731    0.16759   1.00
H3       0.37014    0.78599    0.23597   1.00
C4       0.91505    0.41491    0.64415   1.00
C4       0.91495    0.41509    0.68585   1.00
C3       0.94881    0.40654    0.62208   1.00
C3       0.89952    0.38345    0.70725   1.00
C3       0.88057    0.42327    0.62316   1.00
C3a      0.93087    0.44687    0.70763   1.00
C2       0.91365    0.41567    0.55983   1.00
C2       0.91615    0.41409    0.77017   1.00
C3       0.94806    0.40695    0.58066   1.00
C3       0.90015    0.38301    0.74859   1.00
C3       0.87994    0.42381    0.58180   1.00
C3       0.93133    0.44580    0.74915   1.00
H1       0.97585    0.39971    0.63692   1.00
H1       0.88715    0.35878    0.69185   1.00
H1       0.97452    0.40046    0.56468   1.00
H1       0.88812    0.35816    0.76395   1.00
H1       0.85306    0.43089    0.56679   1.00
H1       0.94333    0.47007    0.76543   1.00
C5       0.94686    0.48274    0.68739   1.00
H1       0.85420    0.43046    0.63901   1.00
H2       0.96148    0.50251    0.70854   1.00
H2       0.96954    0.47378    0.66603   1.00
N1       0.91556    0.50431    0.66792   1.00
C6       0.88375    0.51968    0.68512   1.00
C6       0.91352    0.51273    0.62960   1.00
C6       0.86090    0.53784    0.65743   1.00
C6       0.87983    0.53340    0.62211   1.00
H3       0.87731    0.51765    0.71599   1.00
H3       0.93495    0.50399    0.60809   1.00
H3       0.83352    0.55269    0.66241   1.00
H3       0.87014    0.54401    0.59403   1.00
C4       0.91491    0.64415    0.41505   1.00
C4       0.91509    0.68585    0.41495   1.00
C3       0.90654    0.62208    0.44881   1.00
C3       0.88345    0.70725    0.39952   1.00
C3       0.92327    0.62316    0.38057   1.00
C3a      0.94687    0.70763    0.43087   1.00
C2       0.91567    0.55983    0.41365   1.00
C2       0.91409    0.77017    0.41615   1.00
C3       0.90695    0.58066    0.44806   1.00
C3       0.88301    0.74859    0.40015   1.00
C3       0.92381    0.58180    0.37994   1.00
C3       0.94580    0.74915    0.43133   1.00
H1       0.89971    0.63692    0.47585   1.00
H1       0.85878    0.69185    0.38715   1.00
H1       0.90046    0.56468    0.47452   1.00
H1       0.85816    0.76395    0.38812   1.00
H1       0.93089    0.56679    0.35306   1.00
H1       0.97007    0.76543    0.44333   1.00
C5       0.98274    0.68739    0.44686   1.00
H1       0.93046    0.63901    0.35420   1.00
H2       1.00251    0.70854    0.46148   1.00
H2       0.97378    0.66603    0.46954   1.00
N1       1.00431    0.66792    0.41556   1.00
C6       1.01968    0.68512    0.38375   1.00
C6       1.01273    0.62960    0.41352   1.00
C6       1.03784    0.65743    0.36090   1.00
C6       1.03340    0.62211    0.37983   1.00
H3       1.01765    0.71599    0.37731   1.00
H3       1.00399    0.60809    0.43495   1.00
H3       1.05269    0.66241    0.33352   1.00
H3       1.04401    0.59403    0.37014   1.00
C4       0.68585    0.41505    0.41509   1.00
C4       0.64415    0.41495    0.41491   1.00
C3       0.70792    0.44881    0.42346   1.00
C3       0.62275    0.39952    0.44655   1.00
C3       0.70684    0.38057    0.40673   1.00
C3a      0.62237    0.43087    0.38313   1.00
C2       0.77017    0.41365    0.41433   1.00
C2       0.55983    0.41615    0.41591   1.00
C3       0.74934    0.44806    0.42305   1.00
C3       0.58141    0.40015    0.44699   1.00
C3       0.74820    0.37994    0.40619   1.00
C3       0.58085    0.43133    0.38420   1.00
H1       0.69308    0.47585    0.43029   1.00
H1       0.63815    0.38715    0.47122   1.00
H1       0.76532    0.47452    0.42954   1.00
H1       0.56605    0.38812    0.47184   1.00
H1       0.76321    0.35306    0.39911   1.00
H1       0.56457    0.44333    0.35993   1.00
C5       0.64261    0.44686    0.34726   1.00
H1       0.69099    0.35420    0.39954   1.00
H2       0.62146    0.46148    0.32749   1.00
H2       0.66397    0.46954    0.35622   1.00
N1       0.66208    0.41556    0.32569   1.00
C6       0.64488    0.38375    0.31032   1.00
C6       0.70040    0.41352    0.31727   1.00
C6       0.67257    0.36090    0.29216   1.00
C6       0.70789    0.37983    0.29660   1.00
H3       0.61401    0.37731    0.31235   1.00
H3       0.72191    0.43495    0.32601   1.00
H3       0.66759    0.33352    0.27731   1.00
H3       0.73597    0.37014    0.28599   1.00
C4       1.14415    0.41505    0.41491   1.00
C4       1.18585    0.41495    0.41509   1.00
C3       1.12208    0.44881    0.40654   1.00
C3       1.20725    0.39952    0.38345   1.00
C3       1.12316    0.38057    0.42327   1.00
C3a      1.20763    0.43087    0.44687   1.00
C2       1.05983    0.41365    0.41567   1.00
C2       1.27017    0.41615    0.41409   1.00
C3       1.08066    0.44806    0.40695   1.00
C3       1.24859    0.40015    0.38301   1.00
C3       1.08180    0.37994    0.42381   1.00
C3       1.24915    0.43133    0.44580   1.00
H1       1.13692    0.47585    0.39971   1.00
H1       1.19185    0.38715    0.35878   1.00
H1       1.06468    0.47452    0.40046   1.00
H1       1.26395    0.38812    0.35816   1.00
H1       1.06679    0.35306    0.43089   1.00
H1       1.26543    0.44333    0.47007   1.00
C5       1.18739    0.44686    0.48274   1.00
H1       1.13901    0.35420    0.43046   1.00
H2       1.20854    0.46148    0.50251   1.00
H2       1.16603    0.46954    0.47378   1.00
N1       1.16792    0.41556    0.50431   1.00
C6       1.18512    0.38375    0.51968   1.00
C6       1.12960    0.41352    0.51273   1.00
C6       1.15743    0.36090    0.53784   1.00
C6       1.12211    0.37983    0.53340   1.00
H3       1.21599    0.37731    0.51765   1.00
H3       1.10809    0.43495    0.50399   1.00
H3       1.16241    0.33352    0.55269   1.00
H3       1.09403    0.37014    0.54401   1.00
C4       0.91509    0.18585    0.41505   1.00
C4       0.91491    0.14415    0.41495   1.00
C3       0.92346    0.20792    0.44881   1.00
C3       0.94655    0.12275    0.39952   1.00
C3       0.90673    0.20684    0.38057   1.00
C3a      0.88313    0.12237    0.43087   1.00
C2       0.91433    0.27017    0.41365   1.00
C2       0.91591    0.05983    0.41615   1.00
C3       0.92305    0.24934    0.44806   1.00
C3       0.94699    0.08141    0.40015   1.00
C3       0.90619    0.24820    0.37994   1.00
C3       0.88420    0.08085    0.43133   1.00
H1       0.93029    0.19308    0.47585   1.00
H1       0.97122    0.13815    0.38715   1.00
H1       0.92954    0.26532    0.47452   1.00
H1       0.97184    0.06605    0.38812   1.00
H1       0.89911    0.26321    0.35306   1.00
H1       0.85993    0.06457    0.44333   1.00
C5       0.84726    0.14261    0.44686   1.00
H1       0.89954    0.19099    0.35420   1.00
H2       0.82749    0.12146    0.46148   1.00
H2       0.85622    0.16397    0.46954   1.00
N1       0.82569    0.16208    0.41556   1.00
C6       0.81032    0.14488    0.38375   1.00
C6       0.81727    0.20040    0.41352   1.00
C6       0.79216    0.17257    0.36090   1.00
C6       0.79660    0.20789    0.37983   1.00
H3       0.81235    0.11401    0.37731   1.00
H3       0.82601    0.22191    0.43495   1.00
H3       0.77731    0.16759    0.33352   1.00
H3       0.78599    0.23597    0.37014   1.00
C4       0.91505    0.41509    0.18585   1.00
C4       0.91495    0.41491    0.14415   1.00
C3       0.94881    0.42346    0.20792   1.00
C3       0.89952    0.44655    0.12275   1.00
C3       0.88057    0.40673    0.20684   1.00
C3a      0.93087    0.38313    0.12237   1.00
C2       0.91365    0.41433    0.27017   1.00
C2       0.91615    0.41591    0.05983   1.00
C3       0.94806    0.42305    0.24934   1.00
C3       0.90015    0.44699    0.08141   1.00
C3       0.87994    0.40619    0.24820   1.00
C3       0.93133    0.38420    0.08085   1.00
H1       0.97585    0.43029    0.19308   1.00
H1       0.88715    0.47122    0.13815   1.00
H1       0.97452    0.42954    0.26532   1.00
H1       0.88812    0.47184    0.06605   1.00
H1       0.85306    0.39911    0.26321   1.00
H1       0.94333    0.35993    0.06457   1.00
C5       0.94686    0.34726    0.14261   1.00
H1       0.85420    0.39954    0.19099   1.00
H2       0.96148    0.32749    0.12146   1.00
H2       0.96954    0.35622    0.16397   1.00
N1       0.91556    0.32569    0.16208   1.00
C6       0.88375    0.31032    0.14488   1.00
C6       0.91352    0.31727    0.20040   1.00
C6       0.86090    0.29216    0.17257   1.00
C6       0.87983    0.29660    0.20789   1.00
H3       0.87731    0.31235    0.11401   1.00
H3       0.93495    0.32601    0.22191   1.00
H3       0.83352    0.27731    0.16759   1.00
H3       0.87014    0.28599    0.23597   1.00
