data_IRMOF10_SG202_interpen_Ligand3cp_label_w.

_audit_creation_method             'generated by an auxiliary program of Tobunporous'

_symmetry_space_group_name_H-M     'P 1'
_symmetry_Int_Tables_number        1
_symmetry_cell_setting             triclinic

_cell_length_a                    34.2800
_cell_length_b                    34.2800
_cell_length_c                    34.2800
_cell_angle_alpha                 90.0000
_cell_angle_beta                  90.0000
_cell_angle_gamma                 90.0000

loop_
_atom_site_label
_atom_site_fract_x
_atom_site_fract_y
_atom_site_fract_z
_atom_site_occupancy
O1       0.75000    0.75000    0.75000   1.00
Zn1      0.71720    0.78280    0.78280   1.00
Zn1      0.78280    0.71720    0.78280   1.00
Zn1      0.78280    0.78280    0.71720   1.00
Zn1      0.71720    0.71720    0.71720   1.00
O2       0.72650    0.77350    0.83820   1.00
O2       0.72650    0.83820    0.77350   1.00
O2       0.66180    0.77350    0.77350   1.00
O2       0.77350    0.72650    0.83820   1.00
O2       0.83820    0.72650    0.77350   1.00
O2       0.77350    0.66180    0.77350   1.00
O2       0.77350    0.83820    0.72650   1.00
O2       0.83820    0.77350    0.72650   1.00
O2       0.77350    0.77350    0.66180   1.00
O2       0.66180    0.72650    0.72650   1.00
O2       0.72650    0.66180    0.72650   1.00
O2       0.72650    0.72650    0.66180   1.00
C1       0.75000    0.75000    0.85520   1.00
C1       0.75000    0.85520    0.75000   1.00
C1       0.64480    0.75000    0.75000   1.00
C1       0.85520    0.75000    0.75000   1.00
C1       0.75000    0.64480    0.75000   1.00
C1       0.75000    0.75000    0.64480   1.00
O1       0.25000    0.25000    0.75000   1.00
Zn1      0.21720    0.28280    0.78280   1.00
Zn1      0.28280    0.21720    0.78280   1.00
Zn1      0.28280    0.28280    0.71720   1.00
Zn1      0.21720    0.21720    0.71720   1.00
O2       0.22650    0.27350    0.83820   1.00
O2       0.22650    0.33820    0.77350   1.00
O2       0.16180    0.27350    0.77350   1.00
O2       0.27350    0.22650    0.83820   1.00
O2       0.33820    0.22650    0.77350   1.00
O2       0.27350    0.16180    0.77350   1.00
O2       0.27350    0.33820    0.72650   1.00
O2       0.33820    0.27350    0.72650   1.00
O2       0.27350    0.27350    0.66180   1.00
O2       0.16180    0.22650    0.72650   1.00
O2       0.22650    0.16180    0.72650   1.00
O2       0.22650    0.22650    0.66180   1.00
C1       0.25000    0.25000    0.85520   1.00
C1       0.25000    0.35520    0.75000   1.00
C1       0.14480    0.25000    0.75000   1.00
C1       0.35520    0.25000    0.75000   1.00
C1       0.25000    0.14480    0.75000   1.00
C1       0.25000    0.25000    0.64480   1.00
O1       0.25000    0.75000    0.25000   1.00
Zn1      0.21720    0.78280    0.28280   1.00
Zn1      0.28280    0.71720    0.28280   1.00
Zn1      0.28280    0.78280    0.21720   1.00
Zn1      0.21720    0.71720    0.21720   1.00
O2       0.22650    0.77350    0.33820   1.00
O2       0.22650    0.83820    0.27350   1.00
O2       0.16180    0.77350    0.27350   1.00
O2       0.27350    0.72650    0.33820   1.00
O2       0.33820    0.72650    0.27350   1.00
O2       0.27350    0.66180    0.27350   1.00
O2       0.27350    0.83820    0.22650   1.00
O2       0.33820    0.77350    0.22650   1.00
O2       0.27350    0.77350    0.16180   1.00
O2       0.16180    0.72650    0.22650   1.00
O2       0.22650    0.66180    0.22650   1.00
O2       0.22650    0.72650    0.16180   1.00
C1       0.25000    0.75000    0.35520   1.00
C1       0.25000    0.85520    0.25000   1.00
C1       0.14480    0.75000    0.25000   1.00
C1       0.35520    0.75000    0.25000   1.00
C1       0.25000    0.64480    0.25000   1.00
C1       0.25000    0.75000    0.14480   1.00
O1       0.75000    0.25000    0.25000   1.00
Zn1      0.71720    0.28280    0.28280   1.00
Zn1      0.78280    0.21720    0.28280   1.00
Zn1      0.78280    0.28280    0.21720   1.00
Zn1      0.71720    0.21720    0.21720   1.00
O2       0.72650    0.27350    0.33820   1.00
O2       0.72650    0.33820    0.27350   1.00
O2       0.66180    0.27350    0.27350   1.00
O2       0.77350    0.22650    0.33820   1.00
O2       0.83820    0.22650    0.27350   1.00
O2       0.77350    0.16180    0.27350   1.00
O2       0.77350    0.33820    0.22650   1.00
O2       0.83820    0.27350    0.22650   1.00
O2       0.77350    0.27350    0.16180   1.00
O2       0.66180    0.22650    0.22650   1.00
O2       0.72650    0.16180    0.22650   1.00
O2       0.72650    0.22650    0.16180   1.00
C1       0.75000    0.25000    0.35520   1.00
C1       0.75000    0.35520    0.25000   1.00
C1       0.64480    0.25000    0.25000   1.00
C1       0.85520    0.25000    0.25000   1.00
C1       0.75000    0.14480    0.25000   1.00
C1       0.75000    0.25000    0.14480   1.00
O1       0.25000    0.25000    0.25000   1.00
Zn1      0.28280    0.21720    0.21720   1.00
Zn1      0.21720    0.28280    0.21720   1.00
Zn1      0.21720    0.21720    0.28280   1.00
Zn1      0.28280    0.28280    0.28280   1.00
O2       0.27350    0.22650    0.16180   1.00
O2       0.27350    0.16180    0.22650   1.00
O2       0.33820    0.22650    0.22650   1.00
O2       0.22650    0.27350    0.16180   1.00
O2       0.16180    0.27350    0.22650   1.00
O2       0.22650    0.33820    0.22650   1.00
O2       0.22650    0.16180    0.27350   1.00
O2       0.16180    0.22650    0.27350   1.00
O2       0.22650    0.22650    0.33820   1.00
O2       0.33820    0.27350    0.27350   1.00
O2       0.27350    0.33820    0.27350   1.00
O2       0.27350    0.27350    0.33820   1.00
C1       0.25000    0.25000    0.14480   1.00
C1       0.25000    0.14480    0.25000   1.00
C1       0.35520    0.25000    0.25000   1.00
C1       0.14480    0.25000    0.25000   1.00
C1       0.25000    0.35520    0.25000   1.00
C1       0.25000    0.25000    0.35520   1.00
O1       0.75000    0.75000    0.25000   1.00
Zn1      0.78280    0.71720    0.21720   1.00
Zn1      0.71720    0.78280    0.21720   1.00
Zn1      0.71720    0.71720    0.28280   1.00
Zn1      0.78280    0.78280    0.28280   1.00
O2       0.77350    0.72650    0.16180   1.00
O2       0.77350    0.66180    0.22650   1.00
O2       0.83820    0.72650    0.22650   1.00
O2       0.72650    0.77350    0.16180   1.00
O2       0.66180    0.77350    0.22650   1.00
O2       0.72650    0.83820    0.22650   1.00
O2       0.72650    0.66180    0.27350   1.00
O2       0.66180    0.72650    0.27350   1.00
O2       0.72650    0.72650    0.33820   1.00
O2       0.83820    0.77350    0.27350   1.00
O2       0.77350    0.83820    0.27350   1.00
O2       0.77350    0.77350    0.33820   1.00
C1       0.75000    0.75000    0.14480   1.00
C1       0.75000    0.64480    0.25000   1.00
C1       0.85520    0.75000    0.25000   1.00
C1       0.64480    0.75000    0.25000   1.00
C1       0.75000    0.85520    0.25000   1.00
C1       0.75000    0.75000    0.35520   1.00
O1       0.75000    0.25000    0.75000   1.00
Zn1      0.78280    0.21720    0.71720   1.00
Zn1      0.71720    0.28280    0.71720   1.00
Zn1      0.71720    0.21720    0.78280   1.00
Zn1      0.78280    0.28280    0.78280   1.00
O2       0.77350    0.22650    0.66180   1.00
O2       0.77350    0.16180    0.72650   1.00
O2       0.83820    0.22650    0.72650   1.00
O2       0.72650    0.27350    0.66180   1.00
O2       0.66180    0.27350    0.72650   1.00
O2       0.72650    0.33820    0.72650   1.00
O2       0.72650    0.16180    0.77350   1.00
O2       0.66180    0.22650    0.77350   1.00
O2       0.72650    0.22650    0.83820   1.00
O2       0.83820    0.27350    0.77350   1.00
O2       0.77350    0.33820    0.77350   1.00
O2       0.77350    0.27350    0.83820   1.00
C1       0.75000    0.25000    0.64480   1.00
C1       0.75000    0.14480    0.75000   1.00
C1       0.85520    0.25000    0.75000   1.00
C1       0.64480    0.25000    0.75000   1.00
C1       0.75000    0.35520    0.75000   1.00
C1       0.75000    0.25000    0.85520   1.00
O1       0.25000    0.75000    0.75000   1.00
Zn1      0.28280    0.71720    0.71720   1.00
Zn1      0.21720    0.78280    0.71720   1.00
Zn1      0.21720    0.71720    0.78280   1.00
Zn1      0.28280    0.78280    0.78280   1.00
O2       0.27350    0.72650    0.66180   1.00
O2       0.27350    0.66180    0.72650   1.00
O2       0.33820    0.72650    0.72650   1.00
O2       0.22650    0.77350    0.66180   1.00
O2       0.16180    0.77350    0.72650   1.00
O2       0.22650    0.83820    0.72650   1.00
O2       0.22650    0.66180    0.77350   1.00
O2       0.16180    0.72650    0.77350   1.00
O2       0.22650    0.72650    0.83820   1.00
O2       0.33820    0.77350    0.77350   1.00
O2       0.27350    0.83820    0.77350   1.00
O2       0.27350    0.77350    0.83820   1.00
C1       0.25000    0.75000    0.64480   1.00
C1       0.25000    0.64480    0.75000   1.00
C1       0.35520    0.75000    0.75000   1.00
C1       0.14480    0.75000    0.75000   1.00
C1       0.25000    0.85520    0.75000   1.00
C1       0.25000    0.75000    0.85520   1.00
O1       0.91500    0.91500    0.91500   1.00
Zn1      0.88220    0.94780    0.94780   1.00
Zn1      0.94780    0.88220    0.94780   1.00
Zn1      0.94780    0.94780    0.88220   1.00
Zn1      0.88220    0.88220    0.88220   1.00
O2       0.89150    0.93850    1.00320   1.00
O2       0.89150    1.00320    0.93850   1.00
O2       0.82680    0.93850    0.93850   1.00
O2       0.93850    0.89150    1.00320   1.00
O2       1.00320    0.89150    0.93850   1.00
O2       0.93850    0.82680    0.93850   1.00
O2       0.93850    1.00320    0.89150   1.00
O2       1.00320    0.93850    0.89150   1.00
O2       0.93850    0.93850    0.82680   1.00
O2       0.82680    0.89150    0.89150   1.00
O2       0.89150    0.82680    0.89150   1.00
O2       0.89150    0.89150    0.82680   1.00
C1       0.91500    0.91500    1.02020   1.00
C1       0.91500    1.02020    0.91500   1.00
C1       0.80980    0.91500    0.91500   1.00
C1       1.02020    0.91500    0.91500   1.00
C1       0.91500    0.80980    0.91500   1.00
C1       0.91500    0.91500    0.80980   1.00
O1       0.41500    0.41500    0.91500   1.00
Zn1      0.38220    0.44780    0.94780   1.00
Zn1      0.44780    0.38220    0.94780   1.00
Zn1      0.44780    0.44780    0.88220   1.00
Zn1      0.38220    0.38220    0.88220   1.00
O2       0.39150    0.43850    1.00320   1.00
O2       0.39150    0.50320    0.93850   1.00
O2       0.32680    0.43850    0.93850   1.00
O2       0.43850    0.39150    1.00320   1.00
O2       0.50320    0.39150    0.93850   1.00
O2       0.43850    0.32680    0.93850   1.00
O2       0.43850    0.50320    0.89150   1.00
O2       0.50320    0.43850    0.89150   1.00
O2       0.43850    0.43850    0.82680   1.00
O2       0.32680    0.39150    0.89150   1.00
O2       0.39150    0.32680    0.89150   1.00
O2       0.39150    0.39150    0.82680   1.00
C1       0.41500    0.41500    1.02020   1.00
C1       0.41500    0.52020    0.91500   1.00
C1       0.30980    0.41500    0.91500   1.00
C1       0.52020    0.41500    0.91500   1.00
C1       0.41500    0.30980    0.91500   1.00
C1       0.41500    0.41500    0.80980   1.00
O1       0.41500    0.91500    0.41500   1.00
Zn1      0.38220    0.94780    0.44780   1.00
Zn1      0.44780    0.88220    0.44780   1.00
Zn1      0.44780    0.94780    0.38220   1.00
Zn1      0.38220    0.88220    0.38220   1.00
O2       0.39150    0.93850    0.50320   1.00
O2       0.39150    1.00320    0.43850   1.00
O2       0.32680    0.93850    0.43850   1.00
O2       0.43850    0.89150    0.50320   1.00
O2       0.50320    0.89150    0.43850   1.00
O2       0.43850    0.82680    0.43850   1.00
O2       0.43850    1.00320    0.39150   1.00
O2       0.50320    0.93850    0.39150   1.00
O2       0.43850    0.93850    0.32680   1.00
O2       0.32680    0.89150    0.39150   1.00
O2       0.39150    0.82680    0.39150   1.00
O2       0.39150    0.89150    0.32680   1.00
C1       0.41500    0.91500    0.52020   1.00
C1       0.41500    1.02020    0.41500   1.00
C1       0.30980    0.91500    0.41500   1.00
C1       0.52020    0.91500    0.41500   1.00
C1       0.41500    0.80980    0.41500   1.00
C1       0.41500    0.91500    0.30980   1.00
O1       0.91500    0.41500    0.41500   1.00
Zn1      0.88220    0.44780    0.44780   1.00
Zn1      0.94780    0.38220    0.44780   1.00
Zn1      0.94780    0.44780    0.38220   1.00
Zn1      0.88220    0.38220    0.38220   1.00
O2       0.89150    0.43850    0.50320   1.00
O2       0.89150    0.50320    0.43850   1.00
O2       0.82680    0.43850    0.43850   1.00
O2       0.93850    0.39150    0.50320   1.00
O2       1.00320    0.39150    0.43850   1.00
O2       0.93850    0.32680    0.43850   1.00
O2       0.93850    0.50320    0.39150   1.00
O2       1.00320    0.43850    0.39150   1.00
O2       0.93850    0.43850    0.32680   1.00
O2       0.82680    0.39150    0.39150   1.00
O2       0.89150    0.32680    0.39150   1.00
O2       0.89150    0.39150    0.32680   1.00
C1       0.91500    0.41500    0.52020   1.00
C1       0.91500    0.52020    0.41500   1.00
C1       0.80980    0.41500    0.41500   1.00
C1       1.02020    0.41500    0.41500   1.00
C1       0.91500    0.30980    0.41500   1.00
C1       0.91500    0.41500    0.30980   1.00
O1       0.41500    0.41500    0.41500   1.00
Zn1      0.44780    0.38220    0.38220   1.00
Zn1      0.38220    0.44780    0.38220   1.00
Zn1      0.38220    0.38220    0.44780   1.00
Zn1      0.44780    0.44780    0.44780   1.00
O2       0.43850    0.39150    0.32680   1.00
O2       0.43850    0.32680    0.39150   1.00
O2       0.50320    0.39150    0.39150   1.00
O2       0.39150    0.43850    0.32680   1.00
O2       0.32680    0.43850    0.39150   1.00
O2       0.39150    0.50320    0.39150   1.00
O2       0.39150    0.32680    0.43850   1.00
O2       0.32680    0.39150    0.43850   1.00
O2       0.39150    0.39150    0.50320   1.00
O2       0.50320    0.43850    0.43850   1.00
O2       0.43850    0.50320    0.43850   1.00
O2       0.43850    0.43850    0.50320   1.00
C1       0.41500    0.41500    0.30980   1.00
C1       0.41500    0.30980    0.41500   1.00
C1       0.52020    0.41500    0.41500   1.00
C1       0.30980    0.41500    0.41500   1.00
C1       0.41500    0.52020    0.41500   1.00
C1       0.41500    0.41500    0.52020   1.00
O1       0.91500    0.91500    0.41500   1.00
Zn1      0.94780    0.88220    0.38220   1.00
Zn1      0.88220    0.94780    0.38220   1.00
Zn1      0.88220    0.88220    0.44780   1.00
Zn1      0.94780    0.94780    0.44780   1.00
O2       0.93850    0.89150    0.32680   1.00
O2       0.93850    0.82680    0.39150   1.00
O2       1.00320    0.89150    0.39150   1.00
O2       0.89150    0.93850    0.32680   1.00
O2       0.82680    0.93850    0.39150   1.00
O2       0.89150    1.00320    0.39150   1.00
O2       0.89150    0.82680    0.43850   1.00
O2       0.82680    0.89150    0.43850   1.00
O2       0.89150    0.89150    0.50320   1.00
O2       1.00320    0.93850    0.43850   1.00
O2       0.93850    1.00320    0.43850   1.00
O2       0.93850    0.93850    0.50320   1.00
C1       0.91500    0.91500    0.30980   1.00
C1       0.91500    0.80980    0.41500   1.00
C1       1.02020    0.91500    0.41500   1.00
C1       0.80980    0.91500    0.41500   1.00
C1       0.91500    1.02020    0.41500   1.00
C1       0.91500    0.91500    0.52020   1.00
O1       0.91500    0.41500    0.91500   1.00
Zn1      0.94780    0.38220    0.88220   1.00
Zn1      0.88220    0.44780    0.88220   1.00
Zn1      0.88220    0.38220    0.94780   1.00
Zn1      0.94780    0.44780    0.94780   1.00
O2       0.93850    0.39150    0.82680   1.00
O2       0.93850    0.32680    0.89150   1.00
O2       1.00320    0.39150    0.89150   1.00
O2       0.89150    0.43850    0.82680   1.00
O2       0.82680    0.43850    0.89150   1.00
O2       0.89150    0.50320    0.89150   1.00
O2       0.89150    0.32680    0.93850   1.00
O2       0.82680    0.39150    0.93850   1.00
O2       0.89150    0.39150    1.00320   1.00
O2       1.00320    0.43850    0.93850   1.00
O2       0.93850    0.50320    0.93850   1.00
O2       0.93850    0.43850    1.00320   1.00
C1       0.91500    0.41500    0.80980   1.00
C1       0.91500    0.30980    0.91500   1.00
C1       1.02020    0.41500    0.91500   1.00
C1       0.80980    0.41500    0.91500   1.00
C1       0.91500    0.52020    0.91500   1.00
C1       0.91500    0.41500    1.02020   1.00
O1       0.41500    0.91500    0.91500   1.00
Zn1      0.44780    0.88220    0.88220   1.00
Zn1      0.38220    0.94780    0.88220   1.00
Zn1      0.38220    0.88220    0.94780   1.00
Zn1      0.44780    0.94780    0.94780   1.00
O2       0.43850    0.89150    0.82680   1.00
O2       0.43850    0.82680    0.89150   1.00
O2       0.50320    0.89150    0.89150   1.00
O2       0.39150    0.93850    0.82680   1.00
O2       0.32680    0.93850    0.89150   1.00
O2       0.39150    1.00320    0.89150   1.00
O2       0.39150    0.82680    0.93850   1.00
O2       0.32680    0.89150    0.93850   1.00
O2       0.39150    0.89150    1.00320   1.00
O2       0.50320    0.93850    0.93850   1.00
O2       0.43850    1.00320    0.93850   1.00
O2       0.43850    0.93850    1.00320   1.00
C1       0.41500    0.91500    0.80980   1.00
C1       0.41500    0.80980    0.91500   1.00
C1       0.52020    0.91500    0.91500   1.00
C1       0.30980    0.91500    0.91500   1.00
C1       0.41500    1.02020    0.91500   1.00
C1       0.41500    0.91500    1.02020   1.00
C4       0.74758    0.75185    1.02084   1.00
C4       0.74830    0.75196    0.97912   1.00
C3       0.73563    0.78431    1.04364   1.00
C3       0.74058    0.78559    0.95616   1.00
C3       0.76001    0.71772    1.04123   1.00
C3       0.75710    0.71664    0.95886   1.00
C2       0.74880    0.74997    1.10512   1.00
C2       0.75120    0.75003    0.89488   1.00
C3       0.73642    0.78351    1.08462   1.00
C3       0.74162    0.78458    0.91519   1.00
C3       0.75990    0.71724    1.08258   1.00
C3       0.75964    0.71666    0.91762   1.00
H1       0.72587    0.80945    1.03115   1.00
H1       0.73421    0.81185    0.96852   1.00
C5       0.77231    0.68423    1.02020   1.00
C5       0.76366    0.68159    0.97980   1.00
H1       0.72771    0.80797    1.09955   1.00
H1       0.73545    0.80972    0.90010   1.00
H1       0.76786    0.69218    1.09680   1.00
H1       0.76841    0.69178    0.90368   1.00
O3       0.79030    0.65396    1.03961   1.00
O3       0.76451    0.64591    0.96099   1.00
Si1      0.83785    0.65258    1.04247   1.00
Si1      0.72343    0.62327    0.95279   1.00
C6       0.84110    0.61308    1.07538   1.00
C6       0.85569    0.63965    0.99598   1.00
C6       0.85831    0.69540    1.06253   1.00
C6       0.67953    0.64639    0.96693   1.00
C6       0.72368    0.61676    0.90198   1.00
C6       0.72696    0.57693    0.97477   1.00
C6       0.81368    0.61523    1.11194   1.00
H2       0.82999    0.58886    1.05791   1.00
C6       0.88164    0.59903    1.09147   1.00
H2       0.83095    0.62391    0.98358   1.00
C6       0.86526    0.67303    0.96634   1.00
C6       0.89107    0.61089    0.99336   1.00
H2       0.84012    0.70008    1.08831   1.00
C6       0.90137    0.69291    1.07772   1.00
C6       0.85715    0.73444    1.03849   1.00
C6       0.67469    0.65833    1.01071   1.00
C6       0.66352    0.68138    0.94225   1.00
H2       0.65798    0.62344    0.96212   1.00
H2       0.71957    0.64617    0.89051   1.00
C6       0.76293    0.60202    0.88378   1.00
C6       0.69053    0.59111    0.88393   1.00
H2       0.74353    0.55965    0.95375   1.00
C6       0.75095    0.57468    1.01336   1.00
C6       0.68832    0.55376    0.98244   1.00
H2       0.78316    0.61881    1.10346   1.00
H2       0.82158    0.63963    1.13090   1.00
H2       0.81528    0.58843    1.12917   1.00
H2       0.88120    0.56746    1.09608   1.00
H2       0.90566    0.60544    1.07178   1.00
H2       0.88867    0.61218    1.11964   1.00
H2       0.86787    0.66143    0.93672   1.00
H2       0.84237    0.69502    0.96532   1.00
H2       0.89282    0.68729    0.97352   1.00
H2       0.88504    0.58360    1.00862   1.00
H2       0.89733    0.60292    0.96308   1.00
H2       0.91747    0.62399    1.00550   1.00
H2       0.92090    0.68176    1.05514   1.00
H2       0.91247    0.72135    1.08708   1.00
H2       0.90352    0.67434    1.10332   1.00
H2       0.88220    0.73728    1.01902   1.00
H2       0.83122    0.73755    1.02068   1.00
H2       0.85777    0.75949    1.05828   1.00
H2       0.68846    0.68630    1.01688   1.00
H2       0.64379    0.66133    1.01809   1.00
H2       0.68688    0.63667    1.03048   1.00
H2       0.63380    0.68881    0.95125   1.00
H2       0.68103    0.70762    0.94574   1.00
H2       0.66195    0.67447    0.91122   1.00
H2       0.76239    0.60525    0.85202   1.00
H2       0.78777    0.61901    0.89435   1.00
H2       0.76836    0.57135    0.89035   1.00
H2       0.66176    0.60012    0.89416   1.00
H2       0.69038    0.59390    0.85212   1.00
H2       0.69459    0.56027    0.89085   1.00
H2       0.73803    0.59220    1.03656   1.00
H2       0.75364    0.54468    1.02381   1.00
H2       0.78033    0.58538    1.00834   1.00
H2       0.69464    0.52351    0.99044   1.00
H2       0.67148    0.56671    1.00622   1.00
H2       0.66985    0.55272    0.95657   1.00
C4       0.75185    1.02084    0.74758   1.00
C4       0.75196    0.97912    0.74830   1.00
C3       0.78431    1.04364    0.73563   1.00
C3       0.78559    0.95616    0.74058   1.00
C3       0.71772    1.04123    0.76001   1.00
C3       0.71664    0.95886    0.75710   1.00
C2       0.74997    1.10512    0.74880   1.00
C2       0.75003    0.89488    0.75120   1.00
C3       0.78351    1.08462    0.73642   1.00
C3       0.78458    0.91519    0.74162   1.00
C3       0.71724    1.08258    0.75990   1.00
C3       0.71666    0.91762    0.75964   1.00
H1       0.80945    1.03115    0.72587   1.00
H1       0.81185    0.96852    0.73421   1.00
C5       0.68423    1.02020    0.77231   1.00
C5       0.68159    0.97980    0.76366   1.00
H1       0.80797    1.09955    0.72771   1.00
H1       0.80972    0.90010    0.73545   1.00
H1       0.69218    1.09680    0.76786   1.00
H1       0.69178    0.90368    0.76841   1.00
O3       0.65396    1.03961    0.79030   1.00
O3       0.64591    0.96099    0.76451   1.00
Si1      0.65258    1.04247    0.83785   1.00
Si1      0.62327    0.95279    0.72343   1.00
C6       0.61308    1.07538    0.84110   1.00
C6       0.63965    0.99598    0.85569   1.00
C6       0.69540    1.06253    0.85831   1.00
C6       0.64639    0.96693    0.67953   1.00
C6       0.61676    0.90198    0.72368   1.00
C6       0.57693    0.97477    0.72696   1.00
C6       0.61523    1.11194    0.81368   1.00
H2       0.58886    1.05791    0.82999   1.00
C6       0.59903    1.09147    0.88164   1.00
H2       0.62391    0.98358    0.83095   1.00
C6       0.67303    0.96634    0.86526   1.00
C6       0.61089    0.99336    0.89107   1.00
H2       0.70008    1.08831    0.84012   1.00
C6       0.69291    1.07772    0.90137   1.00
C6       0.73444    1.03849    0.85715   1.00
C6       0.65833    1.01071    0.67469   1.00
C6       0.68138    0.94225    0.66352   1.00
H2       0.62344    0.96212    0.65798   1.00
H2       0.64617    0.89051    0.71957   1.00
C6       0.60202    0.88378    0.76293   1.00
C6       0.59111    0.88393    0.69053   1.00
H2       0.55965    0.95375    0.74353   1.00
C6       0.57468    1.01336    0.75095   1.00
C6       0.55376    0.98244    0.68832   1.00
H2       0.61881    1.10346    0.78316   1.00
H2       0.63963    1.13090    0.82158   1.00
H2       0.58843    1.12917    0.81528   1.00
H2       0.56746    1.09608    0.88120   1.00
H2       0.60544    1.07178    0.90566   1.00
H2       0.61218    1.11964    0.88867   1.00
H2       0.66143    0.93672    0.86787   1.00
H2       0.69502    0.96532    0.84237   1.00
H2       0.68729    0.97352    0.89282   1.00
H2       0.58360    1.00862    0.88504   1.00
H2       0.60292    0.96308    0.89733   1.00
H2       0.62399    1.00550    0.91747   1.00
H2       0.68176    1.05514    0.92090   1.00
H2       0.72135    1.08708    0.91247   1.00
H2       0.67434    1.10332    0.90352   1.00
H2       0.73728    1.01902    0.88220   1.00
H2       0.73755    1.02068    0.83122   1.00
H2       0.75949    1.05828    0.85777   1.00
H2       0.68630    1.01688    0.68846   1.00
H2       0.66133    1.01809    0.64379   1.00
H2       0.63667    1.03048    0.68688   1.00
H2       0.68881    0.95125    0.63380   1.00
H2       0.70762    0.94574    0.68103   1.00
H2       0.67447    0.91122    0.66195   1.00
H2       0.60525    0.85202    0.76239   1.00
H2       0.61901    0.89435    0.78777   1.00
H2       0.57135    0.89035    0.76836   1.00
H2       0.60012    0.89416    0.66176   1.00
H2       0.59390    0.85212    0.69038   1.00
H2       0.56027    0.89085    0.69459   1.00
H2       0.59220    1.03656    0.73803   1.00
H2       0.54468    1.02381    0.75364   1.00
H2       0.58538    1.00834    0.78033   1.00
H2       0.52351    0.99044    0.69464   1.00
H2       0.56671    1.00622    0.67148   1.00
H2       0.55272    0.95657    0.66985   1.00
C4       0.47916    0.74758    0.74815   1.00
C4       0.52088    0.74830    0.74804   1.00
C3       0.45636    0.73563    0.71569   1.00
C3       0.54384    0.74058    0.71441   1.00
C3       0.45877    0.76001    0.78228   1.00
C3       0.54114    0.75710    0.78336   1.00
C2       0.39488    0.74880    0.75003   1.00
C2       0.60512    0.75120    0.74997   1.00
C3       0.41538    0.73642    0.71649   1.00
C3       0.58481    0.74162    0.71542   1.00
C3       0.41742    0.75990    0.78276   1.00
C3       0.58238    0.75964    0.78334   1.00
H1       0.46885    0.72587    0.69055   1.00
H1       0.53148    0.73421    0.68815   1.00
C5       0.47980    0.77231    0.81577   1.00
C5       0.52020    0.76366    0.81841   1.00
H1       0.40045    0.72771    0.69203   1.00
H1       0.59990    0.73545    0.69028   1.00
H1       0.40320    0.76786    0.80782   1.00
H1       0.59632    0.76841    0.80822   1.00
O3       0.46039    0.79030    0.84604   1.00
O3       0.53901    0.76451    0.85409   1.00
Si1      0.45753    0.83785    0.84742   1.00
Si1      0.54721    0.72343    0.87673   1.00
C6       0.42462    0.84110    0.88692   1.00
C6       0.50402    0.85569    0.86035   1.00
C6       0.43747    0.85831    0.80460   1.00
C6       0.53307    0.67953    0.85361   1.00
C6       0.59802    0.72368    0.88324   1.00
C6       0.52523    0.72696    0.92307   1.00
C6       0.38806    0.81368    0.88477   1.00
H2       0.44209    0.82999    0.91114   1.00
C6       0.40853    0.88164    0.90097   1.00
H2       0.51642    0.83095    0.87609   1.00
C6       0.53366    0.86526    0.82697   1.00
C6       0.50664    0.89107    0.88911   1.00
H2       0.41169    0.84012    0.79992   1.00
C6       0.42228    0.90137    0.80709   1.00
C6       0.46151    0.85715    0.76556   1.00
C6       0.48929    0.67469    0.84167   1.00
C6       0.55775    0.66352    0.81862   1.00
H2       0.53788    0.65798    0.87656   1.00
H2       0.60949    0.71957    0.85383   1.00
C6       0.61622    0.76293    0.89798   1.00
C6       0.61607    0.69053    0.90889   1.00
H2       0.54625    0.74353    0.94035   1.00
C6       0.48664    0.75095    0.92532   1.00
C6       0.51756    0.68832    0.94624   1.00
H2       0.39654    0.78316    0.88119   1.00
H2       0.36910    0.82158    0.86037   1.00
H2       0.37083    0.81528    0.91157   1.00
H2       0.40392    0.88120    0.93254   1.00
H2       0.42822    0.90566    0.89456   1.00
H2       0.38036    0.88867    0.88782   1.00
H2       0.56328    0.86787    0.83857   1.00
H2       0.53468    0.84237    0.80498   1.00
H2       0.52648    0.89282    0.81271   1.00
H2       0.49138    0.88504    0.91640   1.00
H2       0.53692    0.89733    0.89708   1.00
H2       0.49450    0.91747    0.87601   1.00
H2       0.44486    0.92090    0.81824   1.00
H2       0.41292    0.91247    0.77865   1.00
H2       0.39668    0.90352    0.82566   1.00
H2       0.48098    0.88220    0.76272   1.00
H2       0.47932    0.83122    0.76245   1.00
H2       0.44172    0.85777    0.74051   1.00
H2       0.48312    0.68846    0.81370   1.00
H2       0.48191    0.64379    0.83867   1.00
H2       0.46952    0.68688    0.86333   1.00
H2       0.54875    0.63380    0.81119   1.00
H2       0.55426    0.68103    0.79238   1.00
H2       0.58878    0.66195    0.82553   1.00
H2       0.64798    0.76239    0.89475   1.00
H2       0.60565    0.78777    0.88099   1.00
H2       0.60965    0.76836    0.92865   1.00
H2       0.60584    0.66176    0.89988   1.00
H2       0.64788    0.69038    0.90610   1.00
H2       0.60915    0.69459    0.93973   1.00
H2       0.46344    0.73803    0.90780   1.00
H2       0.47619    0.75364    0.95532   1.00
H2       0.49166    0.78033    0.91462   1.00
H2       0.50956    0.69464    0.97649   1.00
H2       0.49378    0.67148    0.93329   1.00
H2       0.54343    0.66985    0.94728   1.00
C4       1.02084    0.74758    0.75185   1.00
C4       0.97912    0.74830    0.75196   1.00
C3       1.04364    0.73563    0.78431   1.00
C3       0.95616    0.74058    0.78559   1.00
C3       1.04123    0.76001    0.71772   1.00
C3       0.95886    0.75710    0.71664   1.00
C2       1.10512    0.74880    0.74997   1.00
C2       0.89488    0.75120    0.75003   1.00
C3       1.08462    0.73642    0.78351   1.00
C3       0.91519    0.74162    0.78458   1.00
C3       1.08258    0.75990    0.71724   1.00
C3       0.91762    0.75964    0.71666   1.00
H1       1.03115    0.72587    0.80945   1.00
H1       0.96852    0.73421    0.81185   1.00
C5       1.02020    0.77231    0.68423   1.00
C5       0.97980    0.76366    0.68159   1.00
H1       1.09955    0.72771    0.80797   1.00
H1       0.90010    0.73545    0.80972   1.00
H1       1.09680    0.76786    0.69218   1.00
H1       0.90368    0.76841    0.69178   1.00
O3       1.03961    0.79030    0.65396   1.00
O3       0.96099    0.76451    0.64591   1.00
Si1      1.04247    0.83785    0.65258   1.00
Si1      0.95279    0.72343    0.62327   1.00
C6       1.07538    0.84110    0.61308   1.00
C6       0.99598    0.85569    0.63965   1.00
C6       1.06253    0.85831    0.69540   1.00
C6       0.96693    0.67953    0.64639   1.00
C6       0.90198    0.72368    0.61676   1.00
C6       0.97477    0.72696    0.57693   1.00
C6       1.11194    0.81368    0.61523   1.00
H2       1.05791    0.82999    0.58886   1.00
C6       1.09147    0.88164    0.59903   1.00
H2       0.98358    0.83095    0.62391   1.00
C6       0.96634    0.86526    0.67303   1.00
C6       0.99336    0.89107    0.61089   1.00
H2       1.08831    0.84012    0.70008   1.00
C6       1.07772    0.90137    0.69291   1.00
C6       1.03849    0.85715    0.73444   1.00
C6       1.01071    0.67469    0.65833   1.00
C6       0.94225    0.66352    0.68138   1.00
H2       0.96212    0.65798    0.62344   1.00
H2       0.89051    0.71957    0.64617   1.00
C6       0.88378    0.76293    0.60202   1.00
C6       0.88393    0.69053    0.59111   1.00
H2       0.95375    0.74353    0.55965   1.00
C6       1.01336    0.75095    0.57468   1.00
C6       0.98244    0.68832    0.55376   1.00
H2       1.10346    0.78316    0.61881   1.00
H2       1.13090    0.82158    0.63963   1.00
H2       1.12917    0.81528    0.58843   1.00
H2       1.09608    0.88120    0.56746   1.00
H2       1.07178    0.90566    0.60544   1.00
H2       1.11964    0.88867    0.61218   1.00
H2       0.93672    0.86787    0.66143   1.00
H2       0.96532    0.84237    0.69502   1.00
H2       0.97352    0.89282    0.68729   1.00
H2       1.00862    0.88504    0.58360   1.00
H2       0.96308    0.89733    0.60292   1.00
H2       1.00550    0.91747    0.62399   1.00
H2       1.05514    0.92090    0.68176   1.00
H2       1.08708    0.91247    0.72135   1.00
H2       1.10332    0.90352    0.67434   1.00
H2       1.01902    0.88220    0.73728   1.00
H2       1.02068    0.83122    0.73755   1.00
H2       1.05828    0.85777    0.75949   1.00
H2       1.01688    0.68846    0.68630   1.00
H2       1.01809    0.64379    0.66133   1.00
H2       1.03048    0.68688    0.63667   1.00
H2       0.95125    0.63380    0.68881   1.00
H2       0.94574    0.68103    0.70762   1.00
H2       0.91122    0.66195    0.67447   1.00
H2       0.85202    0.76239    0.60525   1.00
H2       0.89435    0.78777    0.61901   1.00
H2       0.89035    0.76836    0.57135   1.00
H2       0.89416    0.66176    0.60012   1.00
H2       0.85212    0.69038    0.59390   1.00
H2       0.89085    0.69459    0.56027   1.00
H2       1.03656    0.73803    0.59220   1.00
H2       1.02381    0.75364    0.54468   1.00
H2       1.00834    0.78033    0.58538   1.00
H2       0.99044    0.69464    0.52351   1.00
H2       1.00622    0.67148    0.56671   1.00
H2       0.95657    0.66985    0.55272   1.00
C4       0.74815    0.47916    0.74758   1.00
C4       0.74804    0.52088    0.74830   1.00
C3       0.71569    0.45636    0.73563   1.00
C3       0.71441    0.54384    0.74058   1.00
C3       0.78228    0.45877    0.76001   1.00
C3       0.78336    0.54114    0.75710   1.00
C2       0.75003    0.39488    0.74880   1.00
C2       0.74997    0.60512    0.75120   1.00
C3       0.71649    0.41538    0.73642   1.00
C3       0.71542    0.58481    0.74162   1.00
C3       0.78276    0.41742    0.75990   1.00
C3       0.78334    0.58238    0.75964   1.00
H1       0.69055    0.46885    0.72587   1.00
H1       0.68815    0.53148    0.73421   1.00
C5       0.81577    0.47980    0.77231   1.00
C5       0.81841    0.52020    0.76366   1.00
H1       0.69203    0.40045    0.72771   1.00
H1       0.69028    0.59990    0.73545   1.00
H1       0.80782    0.40320    0.76786   1.00
H1       0.80822    0.59632    0.76841   1.00
O3       0.84604    0.46039    0.79030   1.00
O3       0.85409    0.53901    0.76451   1.00
Si1      0.84742    0.45753    0.83785   1.00
Si1      0.87673    0.54721    0.72343   1.00
C6       0.88692    0.42462    0.84110   1.00
C6       0.86035    0.50402    0.85569   1.00
C6       0.80460    0.43747    0.85831   1.00
C6       0.85361    0.53307    0.67953   1.00
C6       0.88324    0.59802    0.72368   1.00
C6       0.92307    0.52523    0.72696   1.00
C6       0.88477    0.38806    0.81368   1.00
H2       0.91114    0.44209    0.82999   1.00
C6       0.90097    0.40853    0.88164   1.00
H2       0.87609    0.51642    0.83095   1.00
C6       0.82697    0.53366    0.86526   1.00
C6       0.88911    0.50664    0.89107   1.00
H2       0.79992    0.41169    0.84012   1.00
C6       0.80709    0.42228    0.90137   1.00
C6       0.76556    0.46151    0.85715   1.00
C6       0.84167    0.48929    0.67469   1.00
C6       0.81862    0.55775    0.66352   1.00
H2       0.87656    0.53788    0.65798   1.00
H2       0.85383    0.60949    0.71957   1.00
C6       0.89798    0.61622    0.76293   1.00
C6       0.90889    0.61607    0.69053   1.00
H2       0.94035    0.54625    0.74353   1.00
C6       0.92532    0.48664    0.75095   1.00
C6       0.94624    0.51756    0.68832   1.00
H2       0.88119    0.39654    0.78316   1.00
H2       0.86037    0.36910    0.82158   1.00
H2       0.91157    0.37083    0.81528   1.00
H2       0.93254    0.40392    0.88120   1.00
H2       0.89456    0.42822    0.90566   1.00
H2       0.88782    0.38036    0.88867   1.00
H2       0.83857    0.56328    0.86787   1.00
H2       0.80498    0.53468    0.84237   1.00
H2       0.81271    0.52648    0.89282   1.00
H2       0.91640    0.49138    0.88504   1.00
H2       0.89708    0.53692    0.89733   1.00
H2       0.87601    0.49450    0.91747   1.00
H2       0.81824    0.44486    0.92090   1.00
H2       0.77865    0.41292    0.91247   1.00
H2       0.82566    0.39668    0.90352   1.00
H2       0.76272    0.48098    0.88220   1.00
H2       0.76245    0.47932    0.83122   1.00
H2       0.74051    0.44172    0.85777   1.00
H2       0.81370    0.48312    0.68846   1.00
H2       0.83867    0.48191    0.64379   1.00
H2       0.86333    0.46952    0.68688   1.00
H2       0.81119    0.54875    0.63380   1.00
H2       0.79238    0.55426    0.68103   1.00
H2       0.82553    0.58878    0.66195   1.00
H2       0.89475    0.64798    0.76239   1.00
H2       0.88099    0.60565    0.78777   1.00
H2       0.92865    0.60965    0.76836   1.00
H2       0.89988    0.60584    0.66176   1.00
H2       0.90610    0.64788    0.69038   1.00
H2       0.93973    0.60915    0.69459   1.00
H2       0.90780    0.46344    0.73803   1.00
H2       0.95532    0.47619    0.75364   1.00
H2       0.91462    0.49166    0.78033   1.00
H2       0.97649    0.50956    0.69464   1.00
H2       0.93329    0.49378    0.67148   1.00
H2       0.94728    0.54343    0.66985   1.00
C4       0.74758    0.74815    0.47916   1.00
C4       0.74830    0.74804    0.52088   1.00
C3       0.73563    0.71569    0.45636   1.00
C3       0.74058    0.71441    0.54384   1.00
C3       0.76001    0.78228    0.45877   1.00
C3       0.75710    0.78336    0.54114   1.00
C2       0.74880    0.75003    0.39488   1.00
C2       0.75120    0.74997    0.60512   1.00
C3       0.73642    0.71649    0.41538   1.00
C3       0.74162    0.71542    0.58481   1.00
C3       0.75990    0.78276    0.41742   1.00
C3       0.75964    0.78334    0.58238   1.00
H1       0.72587    0.69055    0.46885   1.00
H1       0.73421    0.68815    0.53148   1.00
C5       0.77231    0.81577    0.47980   1.00
C5       0.76366    0.81841    0.52020   1.00
H1       0.72771    0.69203    0.40045   1.00
H1       0.73545    0.69028    0.59990   1.00
H1       0.76786    0.80782    0.40320   1.00
H1       0.76841    0.80822    0.59632   1.00
O3       0.79030    0.84604    0.46039   1.00
O3       0.76451    0.85409    0.53901   1.00
Si1      0.83785    0.84742    0.45753   1.00
Si1      0.72343    0.87673    0.54721   1.00
C6       0.84110    0.88692    0.42462   1.00
C6       0.85569    0.86035    0.50402   1.00
C6       0.85831    0.80460    0.43747   1.00
C6       0.67953    0.85361    0.53307   1.00
C6       0.72368    0.88324    0.59802   1.00
C6       0.72696    0.92307    0.52523   1.00
C6       0.81368    0.88477    0.38806   1.00
H2       0.82999    0.91114    0.44209   1.00
C6       0.88164    0.90097    0.40853   1.00
H2       0.83095    0.87609    0.51642   1.00
C6       0.86526    0.82697    0.53366   1.00
C6       0.89107    0.88911    0.50664   1.00
H2       0.84012    0.79992    0.41169   1.00
C6       0.90137    0.80709    0.42228   1.00
C6       0.85715    0.76556    0.46151   1.00
C6       0.67469    0.84167    0.48929   1.00
C6       0.66352    0.81862    0.55775   1.00
H2       0.65798    0.87656    0.53788   1.00
H2       0.71957    0.85383    0.60949   1.00
C6       0.76293    0.89798    0.61622   1.00
C6       0.69053    0.90889    0.61607   1.00
H2       0.74353    0.94035    0.54625   1.00
C6       0.75095    0.92532    0.48664   1.00
C6       0.68832    0.94624    0.51756   1.00
H2       0.78316    0.88119    0.39654   1.00
H2       0.82158    0.86037    0.36910   1.00
H2       0.81528    0.91157    0.37083   1.00
H2       0.88120    0.93254    0.40392   1.00
H2       0.90566    0.89456    0.42822   1.00
H2       0.88867    0.88782    0.38036   1.00
H2       0.86787    0.83857    0.56328   1.00
H2       0.84237    0.80498    0.53468   1.00
H2       0.89282    0.81271    0.52648   1.00
H2       0.88504    0.91640    0.49138   1.00
H2       0.89733    0.89708    0.53692   1.00
H2       0.91747    0.87601    0.49450   1.00
H2       0.92090    0.81824    0.44486   1.00
H2       0.91247    0.77865    0.41292   1.00
H2       0.90352    0.82566    0.39668   1.00
H2       0.88220    0.76272    0.48098   1.00
H2       0.83122    0.76245    0.47932   1.00
H2       0.85777    0.74051    0.44172   1.00
H2       0.68846    0.81370    0.48312   1.00
H2       0.64379    0.83867    0.48191   1.00
H2       0.68688    0.86333    0.46952   1.00
H2       0.63380    0.81119    0.54875   1.00
H2       0.68103    0.79238    0.55426   1.00
H2       0.66195    0.82553    0.58878   1.00
H2       0.76239    0.89475    0.64798   1.00
H2       0.78777    0.88099    0.60565   1.00
H2       0.76836    0.92865    0.60965   1.00
H2       0.66176    0.89988    0.60584   1.00
H2       0.69038    0.90610    0.64788   1.00
H2       0.69459    0.93973    0.60915   1.00
H2       0.73803    0.90780    0.46344   1.00
H2       0.75364    0.95532    0.47619   1.00
H2       0.78033    0.91462    0.49166   1.00
H2       0.69464    0.97649    0.50956   1.00
H2       0.67148    0.93329    0.49378   1.00
H2       0.66985    0.94728    0.54343   1.00
C4       0.24758    0.25185    1.02084   1.00
C4       0.24830    0.25196    0.97912   1.00
C3       0.23563    0.28431    1.04364   1.00
C3       0.24058    0.28559    0.95616   1.00
C3       0.26001    0.21772    1.04123   1.00
C3       0.25710    0.21664    0.95886   1.00
C2       0.24880    0.24997    1.10512   1.00
C2       0.25120    0.25003    0.89488   1.00
C3       0.23642    0.28351    1.08462   1.00
C3       0.24162    0.28458    0.91519   1.00
C3       0.25990    0.21724    1.08258   1.00
C3       0.25964    0.21666    0.91762   1.00
H1       0.22587    0.30945    1.03115   1.00
H1       0.23421    0.31185    0.96852   1.00
C5       0.27231    0.18423    1.02020   1.00
C5       0.26366    0.18159    0.97980   1.00
H1       0.22771    0.30797    1.09955   1.00
H1       0.23545    0.30972    0.90010   1.00
H1       0.26786    0.19218    1.09680   1.00
H1       0.26841    0.19178    0.90368   1.00
O3       0.29030    0.15396    1.03961   1.00
O3       0.26451    0.14591    0.96099   1.00
Si1      0.33785    0.15258    1.04247   1.00
Si1      0.22343    0.12327    0.95279   1.00
C6       0.34110    0.11308    1.07538   1.00
C6       0.35569    0.13965    0.99598   1.00
C6       0.35831    0.19540    1.06253   1.00
C6       0.17953    0.14639    0.96693   1.00
C6       0.22368    0.11676    0.90198   1.00
C6       0.22696    0.07693    0.97477   1.00
C6       0.31368    0.11523    1.11194   1.00
H2       0.32999    0.08886    1.05791   1.00
C6       0.38164    0.09903    1.09147   1.00
H2       0.33095    0.12391    0.98358   1.00
C6       0.36526    0.17303    0.96634   1.00
C6       0.39107    0.11089    0.99336   1.00
H2       0.34012    0.20008    1.08831   1.00
C6       0.40137    0.19291    1.07772   1.00
C6       0.35715    0.23444    1.03849   1.00
C6       0.17469    0.15833    1.01071   1.00
C6       0.16352    0.18138    0.94225   1.00
H2       0.15798    0.12344    0.96212   1.00
H2       0.21957    0.14617    0.89051   1.00
C6       0.26293    0.10202    0.88378   1.00
C6       0.19053    0.09111    0.88393   1.00
H2       0.24353    0.05965    0.95375   1.00
C6       0.25095    0.07468    1.01336   1.00
C6       0.18832    0.05376    0.98244   1.00
H2       0.28316    0.11881    1.10346   1.00
H2       0.32158    0.13963    1.13090   1.00
H2       0.31528    0.08843    1.12917   1.00
H2       0.38120    0.06746    1.09608   1.00
H2       0.40566    0.10544    1.07178   1.00
H2       0.38867    0.11218    1.11964   1.00
H2       0.36787    0.16143    0.93672   1.00
H2       0.34237    0.19502    0.96532   1.00
H2       0.39282    0.18729    0.97352   1.00
H2       0.38504    0.08360    1.00862   1.00
H2       0.39733    0.10292    0.96308   1.00
H2       0.41747    0.12399    1.00550   1.00
H2       0.42090    0.18176    1.05514   1.00
H2       0.41247    0.22135    1.08708   1.00
H2       0.40352    0.17434    1.10332   1.00
H2       0.38220    0.23728    1.01902   1.00
H2       0.33122    0.23755    1.02068   1.00
H2       0.35777    0.25949    1.05828   1.00
H2       0.18846    0.18630    1.01688   1.00
H2       0.14379    0.16133    1.01809   1.00
H2       0.18688    0.13667    1.03048   1.00
H2       0.13380    0.18881    0.95125   1.00
H2       0.18103    0.20762    0.94574   1.00
H2       0.16195    0.17447    0.91122   1.00
H2       0.26239    0.10525    0.85202   1.00
H2       0.28777    0.11901    0.89435   1.00
H2       0.26836    0.07135    0.89035   1.00
H2       0.16176    0.10012    0.89416   1.00
H2       0.19038    0.09390    0.85212   1.00
H2       0.19459    0.06027    0.89085   1.00
H2       0.23803    0.09220    1.03656   1.00
H2       0.25364    0.04468    1.02381   1.00
H2       0.28033    0.08538    1.00834   1.00
H2       0.19464    0.02351    0.99044   1.00
H2       0.17148    0.06671    1.00622   1.00
H2       0.16985    0.05272    0.95657   1.00
C4       0.25185    0.52084    0.74758   1.00
C4       0.25196    0.47912    0.74830   1.00
C3       0.28431    0.54364    0.73563   1.00
C3       0.28559    0.45616    0.74058   1.00
C3       0.21772    0.54123    0.76001   1.00
C3       0.21664    0.45886    0.75710   1.00
C2       0.24997    0.60512    0.74880   1.00
C2       0.25003    0.39488    0.75120   1.00
C3       0.28351    0.58462    0.73642   1.00
C3       0.28458    0.41519    0.74162   1.00
C3       0.21724    0.58258    0.75990   1.00
C3       0.21666    0.41762    0.75964   1.00
H1       0.30945    0.53115    0.72587   1.00
H1       0.31185    0.46852    0.73421   1.00
C5       0.18423    0.52020    0.77231   1.00
C5       0.18159    0.47980    0.76366   1.00
H1       0.30797    0.59955    0.72771   1.00
H1       0.30972    0.40010    0.73545   1.00
H1       0.19218    0.59680    0.76786   1.00
H1       0.19178    0.40368    0.76841   1.00
O3       0.15396    0.53961    0.79030   1.00
O3       0.14591    0.46099    0.76451   1.00
Si1      0.15258    0.54247    0.83785   1.00
Si1      0.12327    0.45279    0.72343   1.00
C6       0.11308    0.57538    0.84110   1.00
C6       0.13965    0.49598    0.85569   1.00
C6       0.19540    0.56253    0.85831   1.00
C6       0.14639    0.46693    0.67953   1.00
C6       0.11676    0.40198    0.72368   1.00
C6       0.07693    0.47477    0.72696   1.00
C6       0.11523    0.61194    0.81368   1.00
H2       0.08886    0.55791    0.82999   1.00
C6       0.09903    0.59147    0.88164   1.00
H2       0.12391    0.48358    0.83095   1.00
C6       0.17303    0.46634    0.86526   1.00
C6       0.11089    0.49336    0.89107   1.00
H2       0.20008    0.58831    0.84012   1.00
C6       0.19291    0.57772    0.90137   1.00
C6       0.23444    0.53849    0.85715   1.00
C6       0.15833    0.51071    0.67469   1.00
C6       0.18138    0.44225    0.66352   1.00
H2       0.12344    0.46212    0.65798   1.00
H2       0.14617    0.39051    0.71957   1.00
C6       0.10202    0.38378    0.76293   1.00
C6       0.09111    0.38393    0.69053   1.00
H2       0.05965    0.45375    0.74353   1.00
C6       0.07468    0.51336    0.75095   1.00
C6       0.05376    0.48244    0.68832   1.00
H2       0.11881    0.60346    0.78316   1.00
H2       0.13963    0.63090    0.82158   1.00
H2       0.08843    0.62917    0.81528   1.00
H2       0.06746    0.59608    0.88120   1.00
H2       0.10544    0.57178    0.90566   1.00
H2       0.11218    0.61964    0.88867   1.00
H2       0.16143    0.43672    0.86787   1.00
H2       0.19502    0.46532    0.84237   1.00
H2       0.18729    0.47352    0.89282   1.00
H2       0.08360    0.50862    0.88504   1.00
H2       0.10292    0.46308    0.89733   1.00
H2       0.12399    0.50550    0.91747   1.00
H2       0.18176    0.55514    0.92090   1.00
H2       0.22135    0.58708    0.91247   1.00
H2       0.17434    0.60332    0.90352   1.00
H2       0.23728    0.51902    0.88220   1.00
H2       0.23755    0.52068    0.83122   1.00
H2       0.25949    0.55828    0.85777   1.00
H2       0.18630    0.51688    0.68846   1.00
H2       0.16133    0.51809    0.64379   1.00
H2       0.13667    0.53048    0.68688   1.00
H2       0.18881    0.45125    0.63380   1.00
H2       0.20762    0.44574    0.68103   1.00
H2       0.17447    0.41122    0.66195   1.00
H2       0.10525    0.35202    0.76239   1.00
H2       0.11901    0.39435    0.78777   1.00
H2       0.07135    0.39035    0.76836   1.00
H2       0.10012    0.39416    0.66176   1.00
H2       0.09390    0.35212    0.69038   1.00
H2       0.06027    0.39085    0.69459   1.00
H2       0.09220    0.53656    0.73803   1.00
H2       0.04468    0.52381    0.75364   1.00
H2       0.08538    0.50834    0.78033   1.00
H2       0.02351    0.49044    0.69464   1.00
H2       0.06671    0.50622    0.67148   1.00
H2       0.05272    0.45657    0.66985   1.00
C4       -0.02084   0.24758    0.74815   1.00
C4       0.02088    0.24830    0.74804   1.00
C3       -0.04364   0.23563    0.71569   1.00
C3       0.04384    0.24058    0.71441   1.00
C3       -0.04123   0.26001    0.78228   1.00
C3       0.04114    0.25710    0.78336   1.00
C2       -0.10512   0.24880    0.75003   1.00
C2       0.10512    0.25120    0.74997   1.00
C3       -0.08462   0.23642    0.71649   1.00
C3       0.08481    0.24162    0.71542   1.00
C3       -0.08258   0.25990    0.78276   1.00
C3       0.08238    0.25964    0.78334   1.00
H1       -0.03115   0.22587    0.69055   1.00
H1       0.03148    0.23421    0.68815   1.00
C5       -0.02020   0.27231    0.81577   1.00
C5       0.02020    0.26366    0.81841   1.00
H1       -0.09955   0.22771    0.69203   1.00
H1       0.09990    0.23545    0.69028   1.00
H1       -0.09680   0.26786    0.80782   1.00
H1       0.09632    0.26841    0.80822   1.00
O3       -0.03961   0.29030    0.84604   1.00
O3       0.03901    0.26451    0.85409   1.00
Si1      -0.04247   0.33785    0.84742   1.00
Si1      0.04721    0.22343    0.87673   1.00
C6       -0.07538   0.34110    0.88692   1.00
C6       0.00402    0.35569    0.86035   1.00
C6       -0.06253   0.35831    0.80460   1.00
C6       0.03307    0.17953    0.85361   1.00
C6       0.09802    0.22368    0.88324   1.00
C6       0.02523    0.22696    0.92307   1.00
C6       -0.11194   0.31368    0.88477   1.00
H2       -0.05791   0.32999    0.91114   1.00
C6       -0.09147   0.38164    0.90097   1.00
H2       0.01642    0.33095    0.87609   1.00
C6       0.03366    0.36526    0.82697   1.00
C6       0.00664    0.39107    0.88911   1.00
H2       -0.08831   0.34012    0.79992   1.00
C6       -0.07772   0.40137    0.80709   1.00
C6       -0.03849   0.35715    0.76556   1.00
C6       -0.01071   0.17469    0.84167   1.00
C6       0.05775    0.16352    0.81862   1.00
H2       0.03788    0.15798    0.87656   1.00
H2       0.10949    0.21957    0.85383   1.00
C6       0.11622    0.26293    0.89798   1.00
C6       0.11607    0.19053    0.90889   1.00
H2       0.04625    0.24353    0.94035   1.00
C6       -0.01336   0.25095    0.92532   1.00
C6       0.01756    0.18832    0.94624   1.00
H2       -0.10346   0.28316    0.88119   1.00
H2       -0.13090   0.32158    0.86037   1.00
H2       -0.12917   0.31528    0.91157   1.00
H2       -0.09608   0.38120    0.93254   1.00
H2       -0.07178   0.40566    0.89456   1.00
H2       -0.11964   0.38867    0.88782   1.00
H2       0.06328    0.36787    0.83857   1.00
H2       0.03468    0.34237    0.80498   1.00
H2       0.02648    0.39282    0.81271   1.00
H2       -0.00862   0.38504    0.91640   1.00
H2       0.03692    0.39733    0.89708   1.00
H2       -0.00550   0.41747    0.87601   1.00
H2       -0.05514   0.42090    0.81824   1.00
H2       -0.08708   0.41247    0.77865   1.00
H2       -0.10332   0.40352    0.82566   1.00
H2       -0.01902   0.38220    0.76272   1.00
H2       -0.02068   0.33122    0.76245   1.00
H2       -0.05828   0.35777    0.74051   1.00
H2       -0.01688   0.18846    0.81370   1.00
H2       -0.01809   0.14379    0.83867   1.00
H2       -0.03048   0.18688    0.86333   1.00
H2       0.04875    0.13380    0.81119   1.00
H2       0.05426    0.18103    0.79238   1.00
H2       0.08878    0.16195    0.82553   1.00
H2       0.14798    0.26239    0.89475   1.00
H2       0.10565    0.28777    0.88099   1.00
H2       0.10965    0.26836    0.92865   1.00
H2       0.10584    0.16176    0.89988   1.00
H2       0.14788    0.19038    0.90610   1.00
H2       0.10915    0.19459    0.93973   1.00
H2       -0.03656   0.23803    0.90780   1.00
H2       -0.02381   0.25364    0.95532   1.00
H2       -0.00834   0.28033    0.91462   1.00
H2       0.00956    0.19464    0.97649   1.00
H2       -0.00622   0.17148    0.93329   1.00
H2       0.04343    0.16985    0.94728   1.00
C4       0.52084    0.24758    0.75185   1.00
C4       0.47912    0.24830    0.75196   1.00
C3       0.54364    0.23563    0.78431   1.00
C3       0.45616    0.24058    0.78559   1.00
C3       0.54123    0.26001    0.71772   1.00
C3       0.45886    0.25710    0.71664   1.00
C2       0.60512    0.24880    0.74997   1.00
C2       0.39488    0.25120    0.75003   1.00
C3       0.58462    0.23642    0.78351   1.00
C3       0.41519    0.24162    0.78458   1.00
C3       0.58258    0.25990    0.71724   1.00
C3       0.41762    0.25964    0.71666   1.00
H1       0.53115    0.22587    0.80945   1.00
H1       0.46852    0.23421    0.81185   1.00
C5       0.52020    0.27231    0.68423   1.00
C5       0.47980    0.26366    0.68159   1.00
H1       0.59955    0.22771    0.80797   1.00
H1       0.40010    0.23545    0.80972   1.00
H1       0.59680    0.26786    0.69218   1.00
H1       0.40368    0.26841    0.69178   1.00
O3       0.53961    0.29030    0.65396   1.00
O3       0.46099    0.26451    0.64591   1.00
Si1      0.54247    0.33785    0.65258   1.00
Si1      0.45279    0.22343    0.62327   1.00
C6       0.57538    0.34110    0.61308   1.00
C6       0.49598    0.35569    0.63965   1.00
C6       0.56253    0.35831    0.69540   1.00
C6       0.46693    0.17953    0.64639   1.00
C6       0.40198    0.22368    0.61676   1.00
C6       0.47477    0.22696    0.57693   1.00
C6       0.61194    0.31368    0.61523   1.00
H2       0.55791    0.32999    0.58886   1.00
C6       0.59147    0.38164    0.59903   1.00
H2       0.48358    0.33095    0.62391   1.00
C6       0.46634    0.36526    0.67303   1.00
C6       0.49336    0.39107    0.61089   1.00
H2       0.58831    0.34012    0.70008   1.00
C6       0.57772    0.40137    0.69291   1.00
C6       0.53849    0.35715    0.73444   1.00
C6       0.51071    0.17469    0.65833   1.00
C6       0.44225    0.16352    0.68138   1.00
H2       0.46212    0.15798    0.62344   1.00
H2       0.39051    0.21957    0.64617   1.00
C6       0.38378    0.26293    0.60202   1.00
C6       0.38393    0.19053    0.59111   1.00
H2       0.45375    0.24353    0.55965   1.00
C6       0.51336    0.25095    0.57468   1.00
C6       0.48244    0.18832    0.55376   1.00
H2       0.60346    0.28316    0.61881   1.00
H2       0.63090    0.32158    0.63963   1.00
H2       0.62917    0.31528    0.58843   1.00
H2       0.59608    0.38120    0.56746   1.00
H2       0.57178    0.40566    0.60544   1.00
H2       0.61964    0.38867    0.61218   1.00
H2       0.43672    0.36787    0.66143   1.00
H2       0.46532    0.34237    0.69502   1.00
H2       0.47352    0.39282    0.68729   1.00
H2       0.50862    0.38504    0.58360   1.00
H2       0.46308    0.39733    0.60292   1.00
H2       0.50550    0.41747    0.62399   1.00
H2       0.55514    0.42090    0.68176   1.00
H2       0.58708    0.41247    0.72135   1.00
H2       0.60332    0.40352    0.67434   1.00
H2       0.51902    0.38220    0.73728   1.00
H2       0.52068    0.33122    0.73755   1.00
H2       0.55828    0.35777    0.75949   1.00
H2       0.51688    0.18846    0.68630   1.00
H2       0.51809    0.14379    0.66133   1.00
H2       0.53048    0.18688    0.63667   1.00
H2       0.45125    0.13380    0.68881   1.00
H2       0.44574    0.18103    0.70762   1.00
H2       0.41122    0.16195    0.67447   1.00
H2       0.35202    0.26239    0.60525   1.00
H2       0.39435    0.28777    0.61901   1.00
H2       0.39035    0.26836    0.57135   1.00
H2       0.39416    0.16176    0.60012   1.00
H2       0.35212    0.19038    0.59390   1.00
H2       0.39085    0.19459    0.56027   1.00
H2       0.53656    0.23803    0.59220   1.00
H2       0.52381    0.25364    0.54468   1.00
H2       0.50834    0.28033    0.58538   1.00
H2       0.49044    0.19464    0.52351   1.00
H2       0.50622    0.17148    0.56671   1.00
H2       0.45657    0.16985    0.55272   1.00
C4       0.24815    -0.02084   0.74758   1.00
C4       0.24804    0.02088    0.74830   1.00
C3       0.21569    -0.04364   0.73563   1.00
C3       0.21441    0.04384    0.74058   1.00
C3       0.28228    -0.04123   0.76001   1.00
C3       0.28336    0.04114    0.75710   1.00
C2       0.25003    -0.10512   0.74880   1.00
C2       0.24997    0.10512    0.75120   1.00
C3       0.21649    -0.08462   0.73642   1.00
C3       0.21542    0.08481    0.74162   1.00
C3       0.28276    -0.08258   0.75990   1.00
C3       0.28334    0.08238    0.75964   1.00
H1       0.19055    -0.03115   0.72587   1.00
H1       0.18815    0.03148    0.73421   1.00
C5       0.31577    -0.02020   0.77231   1.00
C5       0.31841    0.02020    0.76366   1.00
H1       0.19203    -0.09955   0.72771   1.00
H1       0.19028    0.09990    0.73545   1.00
H1       0.30782    -0.09680   0.76786   1.00
H1       0.30822    0.09632    0.76841   1.00
O3       0.34604    -0.03961   0.79030   1.00
O3       0.35409    0.03901    0.76451   1.00
Si1      0.34742    -0.04247   0.83785   1.00
Si1      0.37673    0.04721    0.72343   1.00
C6       0.38692    -0.07538   0.84110   1.00
C6       0.36035    0.00402    0.85569   1.00
C6       0.30460    -0.06253   0.85831   1.00
C6       0.35361    0.03307    0.67953   1.00
C6       0.38324    0.09802    0.72368   1.00
C6       0.42307    0.02523    0.72696   1.00
C6       0.38477    -0.11194   0.81368   1.00
H2       0.41114    -0.05791   0.82999   1.00
C6       0.40097    -0.09147   0.88164   1.00
H2       0.37609    0.01642    0.83095   1.00
C6       0.32697    0.03366    0.86526   1.00
C6       0.38911    0.00664    0.89107   1.00
H2       0.29992    -0.08831   0.84012   1.00
C6       0.30709    -0.07772   0.90137   1.00
C6       0.26556    -0.03849   0.85715   1.00
C6       0.34167    -0.01071   0.67469   1.00
C6       0.31862    0.05775    0.66352   1.00
H2       0.37656    0.03788    0.65798   1.00
H2       0.35383    0.10949    0.71957   1.00
C6       0.39798    0.11622    0.76293   1.00
C6       0.40889    0.11607    0.69053   1.00
H2       0.44035    0.04625    0.74353   1.00
C6       0.42532    -0.01336   0.75095   1.00
C6       0.44624    0.01756    0.68832   1.00
H2       0.38119    -0.10346   0.78316   1.00
H2       0.36037    -0.13090   0.82158   1.00
H2       0.41157    -0.12917   0.81528   1.00
H2       0.43254    -0.09608   0.88120   1.00
H2       0.39456    -0.07178   0.90566   1.00
H2       0.38782    -0.11964   0.88867   1.00
H2       0.33857    0.06328    0.86787   1.00
H2       0.30498    0.03468    0.84237   1.00
H2       0.31271    0.02648    0.89282   1.00
H2       0.41640    -0.00862   0.88504   1.00
H2       0.39708    0.03692    0.89733   1.00
H2       0.37601    -0.00550   0.91747   1.00
H2       0.31824    -0.05514   0.92090   1.00
H2       0.27865    -0.08708   0.91247   1.00
H2       0.32566    -0.10332   0.90352   1.00
H2       0.26272    -0.01902   0.88220   1.00
H2       0.26245    -0.02068   0.83122   1.00
H2       0.24051    -0.05828   0.85777   1.00
H2       0.31370    -0.01688   0.68846   1.00
H2       0.33867    -0.01809   0.64379   1.00
H2       0.36333    -0.03048   0.68688   1.00
H2       0.31119    0.04875    0.63380   1.00
H2       0.29238    0.05426    0.68103   1.00
H2       0.32553    0.08878    0.66195   1.00
H2       0.39475    0.14798    0.76239   1.00
H2       0.38099    0.10565    0.78777   1.00
H2       0.42865    0.10965    0.76836   1.00
H2       0.39988    0.10584    0.66176   1.00
H2       0.40610    0.14788    0.69038   1.00
H2       0.43973    0.10915    0.69459   1.00
H2       0.40780    -0.03656   0.73803   1.00
H2       0.45532    -0.02381   0.75364   1.00
H2       0.41462    -0.00834   0.78033   1.00
H2       0.47649    0.00956    0.69464   1.00
H2       0.43329    -0.00622   0.67148   1.00
H2       0.44728    0.04343    0.66985   1.00
C4       0.24758    0.24815    0.47916   1.00
C4       0.24830    0.24804    0.52088   1.00
C3       0.23563    0.21569    0.45636   1.00
C3       0.24058    0.21441    0.54384   1.00
C3       0.26001    0.28228    0.45877   1.00
C3       0.25710    0.28336    0.54114   1.00
C2       0.24880    0.25003    0.39488   1.00
C2       0.25120    0.24997    0.60512   1.00
C3       0.23642    0.21649    0.41538   1.00
C3       0.24162    0.21542    0.58481   1.00
C3       0.25990    0.28276    0.41742   1.00
C3       0.25964    0.28334    0.58238   1.00
H1       0.22587    0.19055    0.46885   1.00
H1       0.23421    0.18815    0.53148   1.00
C5       0.27231    0.31577    0.47980   1.00
C5       0.26366    0.31841    0.52020   1.00
H1       0.22771    0.19203    0.40045   1.00
H1       0.23545    0.19028    0.59990   1.00
H1       0.26786    0.30782    0.40320   1.00
H1       0.26841    0.30822    0.59632   1.00
O3       0.29030    0.34604    0.46039   1.00
O3       0.26451    0.35409    0.53901   1.00
Si1      0.33785    0.34742    0.45753   1.00
Si1      0.22343    0.37673    0.54721   1.00
C6       0.34110    0.38692    0.42462   1.00
C6       0.35569    0.36035    0.50402   1.00
C6       0.35831    0.30460    0.43747   1.00
C6       0.17953    0.35361    0.53307   1.00
C6       0.22368    0.38324    0.59802   1.00
C6       0.22696    0.42307    0.52523   1.00
C6       0.31368    0.38477    0.38806   1.00
H2       0.32999    0.41114    0.44209   1.00
C6       0.38164    0.40097    0.40853   1.00
H2       0.33095    0.37609    0.51642   1.00
C6       0.36526    0.32697    0.53366   1.00
C6       0.39107    0.38911    0.50664   1.00
H2       0.34012    0.29992    0.41169   1.00
C6       0.40137    0.30709    0.42228   1.00
C6       0.35715    0.26556    0.46151   1.00
C6       0.17469    0.34167    0.48929   1.00
C6       0.16352    0.31862    0.55775   1.00
H2       0.15798    0.37656    0.53788   1.00
H2       0.21957    0.35383    0.60949   1.00
C6       0.26293    0.39798    0.61622   1.00
C6       0.19053    0.40889    0.61607   1.00
H2       0.24353    0.44035    0.54625   1.00
C6       0.25095    0.42532    0.48664   1.00
C6       0.18832    0.44624    0.51756   1.00
H2       0.28316    0.38119    0.39654   1.00
H2       0.32158    0.36037    0.36910   1.00
H2       0.31528    0.41157    0.37083   1.00
H2       0.38120    0.43254    0.40392   1.00
H2       0.40566    0.39456    0.42822   1.00
H2       0.38867    0.38782    0.38036   1.00
H2       0.36787    0.33857    0.56328   1.00
H2       0.34237    0.30498    0.53468   1.00
H2       0.39282    0.31271    0.52648   1.00
H2       0.38504    0.41640    0.49138   1.00
H2       0.39733    0.39708    0.53692   1.00
H2       0.41747    0.37601    0.49450   1.00
H2       0.42090    0.31824    0.44486   1.00
H2       0.41247    0.27865    0.41292   1.00
H2       0.40352    0.32566    0.39668   1.00
H2       0.38220    0.26272    0.48098   1.00
H2       0.33122    0.26245    0.47932   1.00
H2       0.35777    0.24051    0.44172   1.00
H2       0.18846    0.31370    0.48312   1.00
H2       0.14379    0.33867    0.48191   1.00
H2       0.18688    0.36333    0.46952   1.00
H2       0.13380    0.31119    0.54875   1.00
H2       0.18103    0.29238    0.55426   1.00
H2       0.16195    0.32553    0.58878   1.00
H2       0.26239    0.39475    0.64798   1.00
H2       0.28777    0.38099    0.60565   1.00
H2       0.26836    0.42865    0.60965   1.00
H2       0.16176    0.39988    0.60584   1.00
H2       0.19038    0.40610    0.64788   1.00
H2       0.19459    0.43973    0.60915   1.00
H2       0.23803    0.40780    0.46344   1.00
H2       0.25364    0.45532    0.47619   1.00
H2       0.28033    0.41462    0.49166   1.00
H2       0.19464    0.47649    0.50956   1.00
H2       0.17148    0.43329    0.49378   1.00
H2       0.16985    0.44728    0.54343   1.00
C4       0.24758    0.75185    0.52084   1.00
C4       0.24830    0.75196    0.47912   1.00
C3       0.23563    0.78431    0.54364   1.00
C3       0.24058    0.78559    0.45616   1.00
C3       0.26001    0.71772    0.54123   1.00
C3       0.25710    0.71664    0.45886   1.00
C2       0.24880    0.74997    0.60512   1.00
C2       0.25120    0.75003    0.39488   1.00
C3       0.23642    0.78351    0.58462   1.00
C3       0.24162    0.78458    0.41519   1.00
C3       0.25990    0.71724    0.58258   1.00
C3       0.25964    0.71666    0.41762   1.00
H1       0.22587    0.80945    0.53115   1.00
H1       0.23421    0.81185    0.46852   1.00
C5       0.27231    0.68423    0.52020   1.00
C5       0.26366    0.68159    0.47980   1.00
H1       0.22771    0.80797    0.59955   1.00
H1       0.23545    0.80972    0.40010   1.00
H1       0.26786    0.69218    0.59680   1.00
H1       0.26841    0.69178    0.40368   1.00
O3       0.29030    0.65396    0.53961   1.00
O3       0.26451    0.64591    0.46099   1.00
Si1      0.33785    0.65258    0.54247   1.00
Si1      0.22343    0.62327    0.45279   1.00
C6       0.34110    0.61308    0.57538   1.00
C6       0.35569    0.63965    0.49598   1.00
C6       0.35831    0.69540    0.56253   1.00
C6       0.17953    0.64639    0.46693   1.00
C6       0.22368    0.61676    0.40198   1.00
C6       0.22696    0.57693    0.47477   1.00
C6       0.31368    0.61523    0.61194   1.00
H2       0.32999    0.58886    0.55791   1.00
C6       0.38164    0.59903    0.59147   1.00
H2       0.33095    0.62391    0.48358   1.00
C6       0.36526    0.67303    0.46634   1.00
C6       0.39107    0.61089    0.49336   1.00
H2       0.34012    0.70008    0.58831   1.00
C6       0.40137    0.69291    0.57772   1.00
C6       0.35715    0.73444    0.53849   1.00
C6       0.17469    0.65833    0.51071   1.00
C6       0.16352    0.68138    0.44225   1.00
H2       0.15798    0.62344    0.46212   1.00
H2       0.21957    0.64617    0.39051   1.00
C6       0.26293    0.60202    0.38378   1.00
C6       0.19053    0.59111    0.38393   1.00
H2       0.24353    0.55965    0.45375   1.00
C6       0.25095    0.57468    0.51336   1.00
C6       0.18832    0.55376    0.48244   1.00
H2       0.28316    0.61881    0.60346   1.00
H2       0.32158    0.63963    0.63090   1.00
H2       0.31528    0.58843    0.62917   1.00
H2       0.38120    0.56746    0.59608   1.00
H2       0.40566    0.60544    0.57178   1.00
H2       0.38867    0.61218    0.61964   1.00
H2       0.36787    0.66143    0.43672   1.00
H2       0.34237    0.69502    0.46532   1.00
H2       0.39282    0.68729    0.47352   1.00
H2       0.38504    0.58360    0.50862   1.00
H2       0.39733    0.60292    0.46308   1.00
H2       0.41747    0.62399    0.50550   1.00
H2       0.42090    0.68176    0.55514   1.00
H2       0.41247    0.72135    0.58708   1.00
H2       0.40352    0.67434    0.60332   1.00
H2       0.38220    0.73728    0.51902   1.00
H2       0.33122    0.73755    0.52068   1.00
H2       0.35777    0.75949    0.55828   1.00
H2       0.18846    0.68630    0.51688   1.00
H2       0.14379    0.66133    0.51809   1.00
H2       0.18688    0.63667    0.53048   1.00
H2       0.13380    0.68881    0.45125   1.00
H2       0.18103    0.70762    0.44574   1.00
H2       0.16195    0.67447    0.41122   1.00
H2       0.26239    0.60525    0.35202   1.00
H2       0.28777    0.61901    0.39435   1.00
H2       0.26836    0.57135    0.39035   1.00
H2       0.16176    0.60012    0.39416   1.00
H2       0.19038    0.59390    0.35212   1.00
H2       0.19459    0.56027    0.39085   1.00
H2       0.23803    0.59220    0.53656   1.00
H2       0.25364    0.54468    0.52381   1.00
H2       0.28033    0.58538    0.50834   1.00
H2       0.19464    0.52351    0.49044   1.00
H2       0.17148    0.56671    0.50622   1.00
H2       0.16985    0.55272    0.45657   1.00
C4       0.25185    1.02084    0.24758   1.00
C4       0.25196    0.97912    0.24830   1.00
C3       0.28431    1.04364    0.23563   1.00
C3       0.28559    0.95616    0.24058   1.00
C3       0.21772    1.04123    0.26001   1.00
C3       0.21664    0.95886    0.25710   1.00
C2       0.24997    1.10512    0.24880   1.00
C2       0.25003    0.89488    0.25120   1.00
C3       0.28351    1.08462    0.23642   1.00
C3       0.28458    0.91519    0.24162   1.00
C3       0.21724    1.08258    0.25990   1.00
C3       0.21666    0.91762    0.25964   1.00
H1       0.30945    1.03115    0.22587   1.00
H1       0.31185    0.96852    0.23421   1.00
C5       0.18423    1.02020    0.27231   1.00
C5       0.18159    0.97980    0.26366   1.00
H1       0.30797    1.09955    0.22771   1.00
H1       0.30972    0.90010    0.23545   1.00
H1       0.19218    1.09680    0.26786   1.00
H1       0.19178    0.90368    0.26841   1.00
O3       0.15396    1.03961    0.29030   1.00
O3       0.14591    0.96099    0.26451   1.00
Si1      0.15258    1.04247    0.33785   1.00
Si1      0.12327    0.95279    0.22343   1.00
C6       0.11308    1.07538    0.34110   1.00
C6       0.13965    0.99598    0.35569   1.00
C6       0.19540    1.06253    0.35831   1.00
C6       0.14639    0.96693    0.17953   1.00
C6       0.11676    0.90198    0.22368   1.00
C6       0.07693    0.97477    0.22696   1.00
C6       0.11523    1.11194    0.31368   1.00
H2       0.08886    1.05791    0.32999   1.00
C6       0.09903    1.09147    0.38164   1.00
H2       0.12391    0.98358    0.33095   1.00
C6       0.17303    0.96634    0.36526   1.00
C6       0.11089    0.99336    0.39107   1.00
H2       0.20008    1.08831    0.34012   1.00
C6       0.19291    1.07772    0.40137   1.00
C6       0.23444    1.03849    0.35715   1.00
C6       0.15833    1.01071    0.17469   1.00
C6       0.18138    0.94225    0.16352   1.00
H2       0.12344    0.96212    0.15798   1.00
H2       0.14617    0.89051    0.21957   1.00
C6       0.10202    0.88378    0.26293   1.00
C6       0.09111    0.88393    0.19053   1.00
H2       0.05965    0.95375    0.24353   1.00
C6       0.07468    1.01336    0.25095   1.00
C6       0.05376    0.98244    0.18832   1.00
H2       0.11881    1.10346    0.28316   1.00
H2       0.13963    1.13090    0.32158   1.00
H2       0.08843    1.12917    0.31528   1.00
H2       0.06746    1.09608    0.38120   1.00
H2       0.10544    1.07178    0.40566   1.00
H2       0.11218    1.11964    0.38867   1.00
H2       0.16143    0.93672    0.36787   1.00
H2       0.19502    0.96532    0.34237   1.00
H2       0.18729    0.97352    0.39282   1.00
H2       0.08360    1.00862    0.38504   1.00
H2       0.10292    0.96308    0.39733   1.00
H2       0.12399    1.00550    0.41747   1.00
H2       0.18176    1.05514    0.42090   1.00
H2       0.22135    1.08708    0.41247   1.00
H2       0.17434    1.10332    0.40352   1.00
H2       0.23728    1.01902    0.38220   1.00
H2       0.23755    1.02068    0.33122   1.00
H2       0.25949    1.05828    0.35777   1.00
H2       0.18630    1.01688    0.18846   1.00
H2       0.16133    1.01809    0.14379   1.00
H2       0.13667    1.03048    0.18688   1.00
H2       0.18881    0.95125    0.13380   1.00
H2       0.20762    0.94574    0.18103   1.00
H2       0.17447    0.91122    0.16195   1.00
H2       0.10525    0.85202    0.26239   1.00
H2       0.11901    0.89435    0.28777   1.00
H2       0.07135    0.89035    0.26836   1.00
H2       0.10012    0.89416    0.16176   1.00
H2       0.09390    0.85212    0.19038   1.00
H2       0.06027    0.89085    0.19459   1.00
H2       0.09220    1.03656    0.23803   1.00
H2       0.04468    1.02381    0.25364   1.00
H2       0.08538    1.00834    0.28033   1.00
H2       0.02351    0.99044    0.19464   1.00
H2       0.06671    1.00622    0.17148   1.00
H2       0.05272    0.95657    0.16985   1.00
C4       -0.02084   0.74758    0.24815   1.00
C4       0.02088    0.74830    0.24804   1.00
C3       -0.04364   0.73563    0.21569   1.00
C3       0.04384    0.74058    0.21441   1.00
C3       -0.04123   0.76001    0.28228   1.00
C3       0.04114    0.75710    0.28336   1.00
C2       -0.10512   0.74880    0.25003   1.00
C2       0.10512    0.75120    0.24997   1.00
C3       -0.08462   0.73642    0.21649   1.00
C3       0.08481    0.74162    0.21542   1.00
C3       -0.08258   0.75990    0.28276   1.00
C3       0.08238    0.75964    0.28334   1.00
H1       -0.03115   0.72587    0.19055   1.00
H1       0.03148    0.73421    0.18815   1.00
C5       -0.02020   0.77231    0.31577   1.00
C5       0.02020    0.76366    0.31841   1.00
H1       -0.09955   0.72771    0.19203   1.00
H1       0.09990    0.73545    0.19028   1.00
H1       -0.09680   0.76786    0.30782   1.00
H1       0.09632    0.76841    0.30822   1.00
O3       -0.03961   0.79030    0.34604   1.00
O3       0.03901    0.76451    0.35409   1.00
Si1      -0.04247   0.83785    0.34742   1.00
Si1      0.04721    0.72343    0.37673   1.00
C6       -0.07538   0.84110    0.38692   1.00
C6       0.00402    0.85569    0.36035   1.00
C6       -0.06253   0.85831    0.30460   1.00
C6       0.03307    0.67953    0.35361   1.00
C6       0.09802    0.72368    0.38324   1.00
C6       0.02523    0.72696    0.42307   1.00
C6       -0.11194   0.81368    0.38477   1.00
H2       -0.05791   0.82999    0.41114   1.00
C6       -0.09147   0.88164    0.40097   1.00
H2       0.01642    0.83095    0.37609   1.00
C6       0.03366    0.86526    0.32697   1.00
C6       0.00664    0.89107    0.38911   1.00
H2       -0.08831   0.84012    0.29992   1.00
C6       -0.07772   0.90137    0.30709   1.00
C6       -0.03849   0.85715    0.26556   1.00
C6       -0.01071   0.67469    0.34167   1.00
C6       0.05775    0.66352    0.31862   1.00
H2       0.03788    0.65798    0.37656   1.00
H2       0.10949    0.71957    0.35383   1.00
C6       0.11622    0.76293    0.39798   1.00
C6       0.11607    0.69053    0.40889   1.00
H2       0.04625    0.74353    0.44035   1.00
C6       -0.01336   0.75095    0.42532   1.00
C6       0.01756    0.68832    0.44624   1.00
H2       -0.10346   0.78316    0.38119   1.00
H2       -0.13090   0.82158    0.36037   1.00
H2       -0.12917   0.81528    0.41157   1.00
H2       -0.09608   0.88120    0.43254   1.00
H2       -0.07178   0.90566    0.39456   1.00
H2       -0.11964   0.88867    0.38782   1.00
H2       0.06328    0.86787    0.33857   1.00
H2       0.03468    0.84237    0.30498   1.00
H2       0.02648    0.89282    0.31271   1.00
H2       -0.00862   0.88504    0.41640   1.00
H2       0.03692    0.89733    0.39708   1.00
H2       -0.00550   0.91747    0.37601   1.00
H2       -0.05514   0.92090    0.31824   1.00
H2       -0.08708   0.91247    0.27865   1.00
H2       -0.10332   0.90352    0.32566   1.00
H2       -0.01902   0.88220    0.26272   1.00
H2       -0.02068   0.83122    0.26245   1.00
H2       -0.05828   0.85777    0.24051   1.00
H2       -0.01688   0.68846    0.31370   1.00
H2       -0.01809   0.64379    0.33867   1.00
H2       -0.03048   0.68688    0.36333   1.00
H2       0.04875    0.63380    0.31119   1.00
H2       0.05426    0.68103    0.29238   1.00
H2       0.08878    0.66195    0.32553   1.00
H2       0.14798    0.76239    0.39475   1.00
H2       0.10565    0.78777    0.38099   1.00
H2       0.10965    0.76836    0.42865   1.00
H2       0.10584    0.66176    0.39988   1.00
H2       0.14788    0.69038    0.40610   1.00
H2       0.10915    0.69459    0.43973   1.00
H2       -0.03656   0.73803    0.40780   1.00
H2       -0.02381   0.75364    0.45532   1.00
H2       -0.00834   0.78033    0.41462   1.00
H2       0.00956    0.69464    0.47649   1.00
H2       -0.00622   0.67148    0.43329   1.00
H2       0.04343    0.66985    0.44728   1.00
C4       0.52084    0.74758    0.25185   1.00
C4       0.47912    0.74830    0.25196   1.00
C3       0.54364    0.73563    0.28431   1.00
C3       0.45616    0.74058    0.28559   1.00
C3       0.54123    0.76001    0.21772   1.00
C3       0.45886    0.75710    0.21664   1.00
C2       0.60512    0.74880    0.24997   1.00
C2       0.39488    0.75120    0.25003   1.00
C3       0.58462    0.73642    0.28351   1.00
C3       0.41519    0.74162    0.28458   1.00
C3       0.58258    0.75990    0.21724   1.00
C3       0.41762    0.75964    0.21666   1.00
H1       0.53115    0.72587    0.30945   1.00
H1       0.46852    0.73421    0.31185   1.00
C5       0.52020    0.77231    0.18423   1.00
C5       0.47980    0.76366    0.18159   1.00
H1       0.59955    0.72771    0.30797   1.00
H1       0.40010    0.73545    0.30972   1.00
H1       0.59680    0.76786    0.19218   1.00
H1       0.40368    0.76841    0.19178   1.00
O3       0.53961    0.79030    0.15396   1.00
O3       0.46099    0.76451    0.14591   1.00
Si1      0.54247    0.83785    0.15258   1.00
Si1      0.45279    0.72343    0.12327   1.00
C6       0.57538    0.84110    0.11308   1.00
C6       0.49598    0.85569    0.13965   1.00
C6       0.56253    0.85831    0.19540   1.00
C6       0.46693    0.67953    0.14639   1.00
C6       0.40198    0.72368    0.11676   1.00
C6       0.47477    0.72696    0.07693   1.00
C6       0.61194    0.81368    0.11523   1.00
H2       0.55791    0.82999    0.08886   1.00
C6       0.59147    0.88164    0.09903   1.00
H2       0.48358    0.83095    0.12391   1.00
C6       0.46634    0.86526    0.17303   1.00
C6       0.49336    0.89107    0.11089   1.00
H2       0.58831    0.84012    0.20008   1.00
C6       0.57772    0.90137    0.19291   1.00
C6       0.53849    0.85715    0.23444   1.00
C6       0.51071    0.67469    0.15833   1.00
C6       0.44225    0.66352    0.18138   1.00
H2       0.46212    0.65798    0.12344   1.00
H2       0.39051    0.71957    0.14617   1.00
C6       0.38378    0.76293    0.10202   1.00
C6       0.38393    0.69053    0.09111   1.00
H2       0.45375    0.74353    0.05965   1.00
C6       0.51336    0.75095    0.07468   1.00
C6       0.48244    0.68832    0.05376   1.00
H2       0.60346    0.78316    0.11881   1.00
H2       0.63090    0.82158    0.13963   1.00
H2       0.62917    0.81528    0.08843   1.00
H2       0.59608    0.88120    0.06746   1.00
H2       0.57178    0.90566    0.10544   1.00
H2       0.61964    0.88867    0.11218   1.00
H2       0.43672    0.86787    0.16143   1.00
H2       0.46532    0.84237    0.19502   1.00
H2       0.47352    0.89282    0.18729   1.00
H2       0.50862    0.88504    0.08360   1.00
H2       0.46308    0.89733    0.10292   1.00
H2       0.50550    0.91747    0.12399   1.00
H2       0.55514    0.92090    0.18176   1.00
H2       0.58708    0.91247    0.22135   1.00
H2       0.60332    0.90352    0.17434   1.00
H2       0.51902    0.88220    0.23728   1.00
H2       0.52068    0.83122    0.23755   1.00
H2       0.55828    0.85777    0.25949   1.00
H2       0.51688    0.68846    0.18630   1.00
H2       0.51809    0.64379    0.16133   1.00
H2       0.53048    0.68688    0.13667   1.00
H2       0.45125    0.63380    0.18881   1.00
H2       0.44574    0.68103    0.20762   1.00
H2       0.41122    0.66195    0.17447   1.00
H2       0.35202    0.76239    0.10525   1.00
H2       0.39435    0.78777    0.11901   1.00
H2       0.39035    0.76836    0.07135   1.00
H2       0.39416    0.66176    0.10012   1.00
H2       0.35212    0.69038    0.09390   1.00
H2       0.39085    0.69459    0.06027   1.00
H2       0.53656    0.73803    0.09220   1.00
H2       0.52381    0.75364    0.04468   1.00
H2       0.50834    0.78033    0.08538   1.00
H2       0.49044    0.69464    0.02351   1.00
H2       0.50622    0.67148    0.06671   1.00
H2       0.45657    0.66985    0.05272   1.00
C4       0.24815    0.47916    0.24758   1.00
C4       0.24804    0.52088    0.24830   1.00
C3       0.21569    0.45636    0.23563   1.00
C3       0.21441    0.54384    0.24058   1.00
C3       0.28228    0.45877    0.26001   1.00
C3       0.28336    0.54114    0.25710   1.00
C2       0.25003    0.39488    0.24880   1.00
C2       0.24997    0.60512    0.25120   1.00
C3       0.21649    0.41538    0.23642   1.00
C3       0.21542    0.58481    0.24162   1.00
C3       0.28276    0.41742    0.25990   1.00
C3       0.28334    0.58238    0.25964   1.00
H1       0.19055    0.46885    0.22587   1.00
H1       0.18815    0.53148    0.23421   1.00
C5       0.31577    0.47980    0.27231   1.00
C5       0.31841    0.52020    0.26366   1.00
H1       0.19203    0.40045    0.22771   1.00
H1       0.19028    0.59990    0.23545   1.00
H1       0.30782    0.40320    0.26786   1.00
H1       0.30822    0.59632    0.26841   1.00
O3       0.34604    0.46039    0.29030   1.00
O3       0.35409    0.53901    0.26451   1.00
Si1      0.34742    0.45753    0.33785   1.00
Si1      0.37673    0.54721    0.22343   1.00
C6       0.38692    0.42462    0.34110   1.00
C6       0.36035    0.50402    0.35569   1.00
C6       0.30460    0.43747    0.35831   1.00
C6       0.35361    0.53307    0.17953   1.00
C6       0.38324    0.59802    0.22368   1.00
C6       0.42307    0.52523    0.22696   1.00
C6       0.38477    0.38806    0.31368   1.00
H2       0.41114    0.44209    0.32999   1.00
C6       0.40097    0.40853    0.38164   1.00
H2       0.37609    0.51642    0.33095   1.00
C6       0.32697    0.53366    0.36526   1.00
C6       0.38911    0.50664    0.39107   1.00
H2       0.29992    0.41169    0.34012   1.00
C6       0.30709    0.42228    0.40137   1.00
C6       0.26556    0.46151    0.35715   1.00
C6       0.34167    0.48929    0.17469   1.00
C6       0.31862    0.55775    0.16352   1.00
H2       0.37656    0.53788    0.15798   1.00
H2       0.35383    0.60949    0.21957   1.00
C6       0.39798    0.61622    0.26293   1.00
C6       0.40889    0.61607    0.19053   1.00
H2       0.44035    0.54625    0.24353   1.00
C6       0.42532    0.48664    0.25095   1.00
C6       0.44624    0.51756    0.18832   1.00
H2       0.38119    0.39654    0.28316   1.00
H2       0.36037    0.36910    0.32158   1.00
H2       0.41157    0.37083    0.31528   1.00
H2       0.43254    0.40392    0.38120   1.00
H2       0.39456    0.42822    0.40566   1.00
H2       0.38782    0.38036    0.38867   1.00
H2       0.33857    0.56328    0.36787   1.00
H2       0.30498    0.53468    0.34237   1.00
H2       0.31271    0.52648    0.39282   1.00
H2       0.41640    0.49138    0.38504   1.00
H2       0.39708    0.53692    0.39733   1.00
H2       0.37601    0.49450    0.41747   1.00
H2       0.31824    0.44486    0.42090   1.00
H2       0.27865    0.41292    0.41247   1.00
H2       0.32566    0.39668    0.40352   1.00
H2       0.26272    0.48098    0.38220   1.00
H2       0.26245    0.47932    0.33122   1.00
H2       0.24051    0.44172    0.35777   1.00
H2       0.31370    0.48312    0.18846   1.00
H2       0.33867    0.48191    0.14379   1.00
H2       0.36333    0.46952    0.18688   1.00
H2       0.31119    0.54875    0.13380   1.00
H2       0.29238    0.55426    0.18103   1.00
H2       0.32553    0.58878    0.16195   1.00
H2       0.39475    0.64798    0.26239   1.00
H2       0.38099    0.60565    0.28777   1.00
H2       0.42865    0.60965    0.26836   1.00
H2       0.39988    0.60584    0.16176   1.00
H2       0.40610    0.64788    0.19038   1.00
H2       0.43973    0.60915    0.19459   1.00
H2       0.40780    0.46344    0.23803   1.00
H2       0.45532    0.47619    0.25364   1.00
H2       0.41462    0.49166    0.28033   1.00
H2       0.47649    0.50956    0.19464   1.00
H2       0.43329    0.49378    0.17148   1.00
H2       0.44728    0.54343    0.16985   1.00
C4       0.24758    0.74815    -0.02084   1.00
C4       0.24830    0.74804    0.02088   1.00
C3       0.23563    0.71569    -0.04364   1.00
C3       0.24058    0.71441    0.04384   1.00
C3       0.26001    0.78228    -0.04123   1.00
C3       0.25710    0.78336    0.04114   1.00
C2       0.24880    0.75003    -0.10512   1.00
C2       0.25120    0.74997    0.10512   1.00
C3       0.23642    0.71649    -0.08462   1.00
C3       0.24162    0.71542    0.08481   1.00
C3       0.25990    0.78276    -0.08258   1.00
C3       0.25964    0.78334    0.08238   1.00
H1       0.22587    0.69055    -0.03115   1.00
H1       0.23421    0.68815    0.03148   1.00
C5       0.27231    0.81577    -0.02020   1.00
C5       0.26366    0.81841    0.02020   1.00
H1       0.22771    0.69203    -0.09955   1.00
H1       0.23545    0.69028    0.09990   1.00
H1       0.26786    0.80782    -0.09680   1.00
H1       0.26841    0.80822    0.09632   1.00
O3       0.29030    0.84604    -0.03961   1.00
O3       0.26451    0.85409    0.03901   1.00
Si1      0.33785    0.84742    -0.04247   1.00
Si1      0.22343    0.87673    0.04721   1.00
C6       0.34110    0.88692    -0.07538   1.00
C6       0.35569    0.86035    0.00402   1.00
C6       0.35831    0.80460    -0.06253   1.00
C6       0.17953    0.85361    0.03307   1.00
C6       0.22368    0.88324    0.09802   1.00
C6       0.22696    0.92307    0.02523   1.00
C6       0.31368    0.88477    -0.11194   1.00
H2       0.32999    0.91114    -0.05791   1.00
C6       0.38164    0.90097    -0.09147   1.00
H2       0.33095    0.87609    0.01642   1.00
C6       0.36526    0.82697    0.03366   1.00
C6       0.39107    0.88911    0.00664   1.00
H2       0.34012    0.79992    -0.08831   1.00
C6       0.40137    0.80709    -0.07772   1.00
C6       0.35715    0.76556    -0.03849   1.00
C6       0.17469    0.84167    -0.01071   1.00
C6       0.16352    0.81862    0.05775   1.00
H2       0.15798    0.87656    0.03788   1.00
H2       0.21957    0.85383    0.10949   1.00
C6       0.26293    0.89798    0.11622   1.00
C6       0.19053    0.90889    0.11607   1.00
H2       0.24353    0.94035    0.04625   1.00
C6       0.25095    0.92532    -0.01336   1.00
C6       0.18832    0.94624    0.01756   1.00
H2       0.28316    0.88119    -0.10346   1.00
H2       0.32158    0.86037    -0.13090   1.00
H2       0.31528    0.91157    -0.12917   1.00
H2       0.38120    0.93254    -0.09608   1.00
H2       0.40566    0.89456    -0.07178   1.00
H2       0.38867    0.88782    -0.11964   1.00
H2       0.36787    0.83857    0.06328   1.00
H2       0.34237    0.80498    0.03468   1.00
H2       0.39282    0.81271    0.02648   1.00
H2       0.38504    0.91640    -0.00862   1.00
H2       0.39733    0.89708    0.03692   1.00
H2       0.41747    0.87601    -0.00550   1.00
H2       0.42090    0.81824    -0.05514   1.00
H2       0.41247    0.77865    -0.08708   1.00
H2       0.40352    0.82566    -0.10332   1.00
H2       0.38220    0.76272    -0.01902   1.00
H2       0.33122    0.76245    -0.02068   1.00
H2       0.35777    0.74051    -0.05828   1.00
H2       0.18846    0.81370    -0.01688   1.00
H2       0.14379    0.83867    -0.01809   1.00
H2       0.18688    0.86333    -0.03048   1.00
H2       0.13380    0.81119    0.04875   1.00
H2       0.18103    0.79238    0.05426   1.00
H2       0.16195    0.82553    0.08878   1.00
H2       0.26239    0.89475    0.14798   1.00
H2       0.28777    0.88099    0.10565   1.00
H2       0.26836    0.92865    0.10965   1.00
H2       0.16176    0.89988    0.10584   1.00
H2       0.19038    0.90610    0.14788   1.00
H2       0.19459    0.93973    0.10915   1.00
H2       0.23803    0.90780    -0.03656   1.00
H2       0.25364    0.95532    -0.02381   1.00
H2       0.28033    0.91462    -0.00834   1.00
H2       0.19464    0.97649    0.00956   1.00
H2       0.17148    0.93329    -0.00622   1.00
H2       0.16985    0.94728    0.04343   1.00
C4       0.74758    0.25185    0.52084   1.00
C4       0.74830    0.25196    0.47912   1.00
C3       0.73563    0.28431    0.54364   1.00
C3       0.74058    0.28559    0.45616   1.00
C3       0.76001    0.21772    0.54123   1.00
C3       0.75710    0.21664    0.45886   1.00
C2       0.74880    0.24997    0.60512   1.00
C2       0.75120    0.25003    0.39488   1.00
C3       0.73642    0.28351    0.58462   1.00
C3       0.74162    0.28458    0.41519   1.00
C3       0.75990    0.21724    0.58258   1.00
C3       0.75964    0.21666    0.41762   1.00
H1       0.72587    0.30945    0.53115   1.00
H1       0.73421    0.31185    0.46852   1.00
C5       0.77231    0.18423    0.52020   1.00
C5       0.76366    0.18159    0.47980   1.00
H1       0.72771    0.30797    0.59955   1.00
H1       0.73545    0.30972    0.40010   1.00
H1       0.76786    0.19218    0.59680   1.00
H1       0.76841    0.19178    0.40368   1.00
O3       0.79030    0.15396    0.53961   1.00
O3       0.76451    0.14591    0.46099   1.00
Si1      0.83785    0.15258    0.54247   1.00
Si1      0.72343    0.12327    0.45279   1.00
C6       0.84110    0.11308    0.57538   1.00
C6       0.85569    0.13965    0.49598   1.00
C6       0.85831    0.19540    0.56253   1.00
C6       0.67953    0.14639    0.46693   1.00
C6       0.72368    0.11676    0.40198   1.00
C6       0.72696    0.07693    0.47477   1.00
C6       0.81368    0.11523    0.61194   1.00
H2       0.82999    0.08886    0.55791   1.00
C6       0.88164    0.09903    0.59147   1.00
H2       0.83095    0.12391    0.48358   1.00
C6       0.86526    0.17303    0.46634   1.00
C6       0.89107    0.11089    0.49336   1.00
H2       0.84012    0.20008    0.58831   1.00
C6       0.90137    0.19291    0.57772   1.00
C6       0.85715    0.23444    0.53849   1.00
C6       0.67469    0.15833    0.51071   1.00
C6       0.66352    0.18138    0.44225   1.00
H2       0.65798    0.12344    0.46212   1.00
H2       0.71957    0.14617    0.39051   1.00
C6       0.76293    0.10202    0.38378   1.00
C6       0.69053    0.09111    0.38393   1.00
H2       0.74353    0.05965    0.45375   1.00
C6       0.75095    0.07468    0.51336   1.00
C6       0.68832    0.05376    0.48244   1.00
H2       0.78316    0.11881    0.60346   1.00
H2       0.82158    0.13963    0.63090   1.00
H2       0.81528    0.08843    0.62917   1.00
H2       0.88120    0.06746    0.59608   1.00
H2       0.90566    0.10544    0.57178   1.00
H2       0.88867    0.11218    0.61964   1.00
H2       0.86787    0.16143    0.43672   1.00
H2       0.84237    0.19502    0.46532   1.00
H2       0.89282    0.18729    0.47352   1.00
H2       0.88504    0.08360    0.50862   1.00
H2       0.89733    0.10292    0.46308   1.00
H2       0.91747    0.12399    0.50550   1.00
H2       0.92090    0.18176    0.55514   1.00
H2       0.91247    0.22135    0.58708   1.00
H2       0.90352    0.17434    0.60332   1.00
H2       0.88220    0.23728    0.51902   1.00
H2       0.83122    0.23755    0.52068   1.00
H2       0.85777    0.25949    0.55828   1.00
H2       0.68846    0.18630    0.51688   1.00
H2       0.64379    0.16133    0.51809   1.00
H2       0.68688    0.13667    0.53048   1.00
H2       0.63380    0.18881    0.45125   1.00
H2       0.68103    0.20762    0.44574   1.00
H2       0.66195    0.17447    0.41122   1.00
H2       0.76239    0.10525    0.35202   1.00
H2       0.78777    0.11901    0.39435   1.00
H2       0.76836    0.07135    0.39035   1.00
H2       0.66176    0.10012    0.39416   1.00
H2       0.69038    0.09390    0.35212   1.00
H2       0.69459    0.06027    0.39085   1.00
H2       0.73803    0.09220    0.53656   1.00
H2       0.75364    0.04468    0.52381   1.00
H2       0.78033    0.08538    0.50834   1.00
H2       0.69464    0.02351    0.49044   1.00
H2       0.67148    0.06671    0.50622   1.00
H2       0.66985    0.05272    0.45657   1.00
C4       0.75185    0.52084    0.24758   1.00
C4       0.75196    0.47912    0.24830   1.00
C3       0.78431    0.54364    0.23563   1.00
C3       0.78559    0.45616    0.24058   1.00
C3       0.71772    0.54123    0.26001   1.00
C3       0.71664    0.45886    0.25710   1.00
C2       0.74997    0.60512    0.24880   1.00
C2       0.75003    0.39488    0.25120   1.00
C3       0.78351    0.58462    0.23642   1.00
C3       0.78458    0.41519    0.24162   1.00
C3       0.71724    0.58258    0.25990   1.00
C3       0.71666    0.41762    0.25964   1.00
H1       0.80945    0.53115    0.22587   1.00
H1       0.81185    0.46852    0.23421   1.00
C5       0.68423    0.52020    0.27231   1.00
C5       0.68159    0.47980    0.26366   1.00
H1       0.80797    0.59955    0.22771   1.00
H1       0.80972    0.40010    0.23545   1.00
H1       0.69218    0.59680    0.26786   1.00
H1       0.69178    0.40368    0.26841   1.00
O3       0.65396    0.53961    0.29030   1.00
O3       0.64591    0.46099    0.26451   1.00
Si1      0.65258    0.54247    0.33785   1.00
Si1      0.62327    0.45279    0.22343   1.00
C6       0.61308    0.57538    0.34110   1.00
C6       0.63965    0.49598    0.35569   1.00
C6       0.69540    0.56253    0.35831   1.00
C6       0.64639    0.46693    0.17953   1.00
C6       0.61676    0.40198    0.22368   1.00
C6       0.57693    0.47477    0.22696   1.00
C6       0.61523    0.61194    0.31368   1.00
H2       0.58886    0.55791    0.32999   1.00
C6       0.59903    0.59147    0.38164   1.00
H2       0.62391    0.48358    0.33095   1.00
C6       0.67303    0.46634    0.36526   1.00
C6       0.61089    0.49336    0.39107   1.00
H2       0.70008    0.58831    0.34012   1.00
C6       0.69291    0.57772    0.40137   1.00
C6       0.73444    0.53849    0.35715   1.00
C6       0.65833    0.51071    0.17469   1.00
C6       0.68138    0.44225    0.16352   1.00
H2       0.62344    0.46212    0.15798   1.00
H2       0.64617    0.39051    0.21957   1.00
C6       0.60202    0.38378    0.26293   1.00
C6       0.59111    0.38393    0.19053   1.00
H2       0.55965    0.45375    0.24353   1.00
C6       0.57468    0.51336    0.25095   1.00
C6       0.55376    0.48244    0.18832   1.00
H2       0.61881    0.60346    0.28316   1.00
H2       0.63963    0.63090    0.32158   1.00
H2       0.58843    0.62917    0.31528   1.00
H2       0.56746    0.59608    0.38120   1.00
H2       0.60544    0.57178    0.40566   1.00
H2       0.61218    0.61964    0.38867   1.00
H2       0.66143    0.43672    0.36787   1.00
H2       0.69502    0.46532    0.34237   1.00
H2       0.68729    0.47352    0.39282   1.00
H2       0.58360    0.50862    0.38504   1.00
H2       0.60292    0.46308    0.39733   1.00
H2       0.62399    0.50550    0.41747   1.00
H2       0.68176    0.55514    0.42090   1.00
H2       0.72135    0.58708    0.41247   1.00
H2       0.67434    0.60332    0.40352   1.00
H2       0.73728    0.51902    0.38220   1.00
H2       0.73755    0.52068    0.33122   1.00
H2       0.75949    0.55828    0.35777   1.00
H2       0.68630    0.51688    0.18846   1.00
H2       0.66133    0.51809    0.14379   1.00
H2       0.63667    0.53048    0.18688   1.00
H2       0.68881    0.45125    0.13380   1.00
H2       0.70762    0.44574    0.18103   1.00
H2       0.67447    0.41122    0.16195   1.00
H2       0.60525    0.35202    0.26239   1.00
H2       0.61901    0.39435    0.28777   1.00
H2       0.57135    0.39035    0.26836   1.00
H2       0.60012    0.39416    0.16176   1.00
H2       0.59390    0.35212    0.19038   1.00
H2       0.56027    0.39085    0.19459   1.00
H2       0.59220    0.53656    0.23803   1.00
H2       0.54468    0.52381    0.25364   1.00
H2       0.58538    0.50834    0.28033   1.00
H2       0.52351    0.49044    0.19464   1.00
H2       0.56671    0.50622    0.17148   1.00
H2       0.55272    0.45657    0.16985   1.00
C4       0.47916    0.24758    0.24815   1.00
C4       0.52088    0.24830    0.24804   1.00
C3       0.45636    0.23563    0.21569   1.00
C3       0.54384    0.24058    0.21441   1.00
C3       0.45877    0.26001    0.28228   1.00
C3       0.54114    0.25710    0.28336   1.00
C2       0.39488    0.24880    0.25003   1.00
C2       0.60512    0.25120    0.24997   1.00
C3       0.41538    0.23642    0.21649   1.00
C3       0.58481    0.24162    0.21542   1.00
C3       0.41742    0.25990    0.28276   1.00
C3       0.58238    0.25964    0.28334   1.00
H1       0.46885    0.22587    0.19055   1.00
H1       0.53148    0.23421    0.18815   1.00
C5       0.47980    0.27231    0.31577   1.00
C5       0.52020    0.26366    0.31841   1.00
H1       0.40045    0.22771    0.19203   1.00
H1       0.59990    0.23545    0.19028   1.00
H1       0.40320    0.26786    0.30782   1.00
H1       0.59632    0.26841    0.30822   1.00
O3       0.46039    0.29030    0.34604   1.00
O3       0.53901    0.26451    0.35409   1.00
Si1      0.45753    0.33785    0.34742   1.00
Si1      0.54721    0.22343    0.37673   1.00
C6       0.42462    0.34110    0.38692   1.00
C6       0.50402    0.35569    0.36035   1.00
C6       0.43747    0.35831    0.30460   1.00
C6       0.53307    0.17953    0.35361   1.00
C6       0.59802    0.22368    0.38324   1.00
C6       0.52523    0.22696    0.42307   1.00
C6       0.38806    0.31368    0.38477   1.00
H2       0.44209    0.32999    0.41114   1.00
C6       0.40853    0.38164    0.40097   1.00
H2       0.51642    0.33095    0.37609   1.00
C6       0.53366    0.36526    0.32697   1.00
C6       0.50664    0.39107    0.38911   1.00
H2       0.41169    0.34012    0.29992   1.00
C6       0.42228    0.40137    0.30709   1.00
C6       0.46151    0.35715    0.26556   1.00
C6       0.48929    0.17469    0.34167   1.00
C6       0.55775    0.16352    0.31862   1.00
H2       0.53788    0.15798    0.37656   1.00
H2       0.60949    0.21957    0.35383   1.00
C6       0.61622    0.26293    0.39798   1.00
C6       0.61607    0.19053    0.40889   1.00
H2       0.54625    0.24353    0.44035   1.00
C6       0.48664    0.25095    0.42532   1.00
C6       0.51756    0.18832    0.44624   1.00
H2       0.39654    0.28316    0.38119   1.00
H2       0.36910    0.32158    0.36037   1.00
H2       0.37083    0.31528    0.41157   1.00
H2       0.40392    0.38120    0.43254   1.00
H2       0.42822    0.40566    0.39456   1.00
H2       0.38036    0.38867    0.38782   1.00
H2       0.56328    0.36787    0.33857   1.00
H2       0.53468    0.34237    0.30498   1.00
H2       0.52648    0.39282    0.31271   1.00
H2       0.49138    0.38504    0.41640   1.00
H2       0.53692    0.39733    0.39708   1.00
H2       0.49450    0.41747    0.37601   1.00
H2       0.44486    0.42090    0.31824   1.00
H2       0.41292    0.41247    0.27865   1.00
H2       0.39668    0.40352    0.32566   1.00
H2       0.48098    0.38220    0.26272   1.00
H2       0.47932    0.33122    0.26245   1.00
H2       0.44172    0.35777    0.24051   1.00
H2       0.48312    0.18846    0.31370   1.00
H2       0.48191    0.14379    0.33867   1.00
H2       0.46952    0.18688    0.36333   1.00
H2       0.54875    0.13380    0.31119   1.00
H2       0.55426    0.18103    0.29238   1.00
H2       0.58878    0.16195    0.32553   1.00
H2       0.64798    0.26239    0.39475   1.00
H2       0.60565    0.28777    0.38099   1.00
H2       0.60965    0.26836    0.42865   1.00
H2       0.60584    0.16176    0.39988   1.00
H2       0.64788    0.19038    0.40610   1.00
H2       0.60915    0.19459    0.43973   1.00
H2       0.46344    0.23803    0.40780   1.00
H2       0.47619    0.25364    0.45532   1.00
H2       0.49166    0.28033    0.41462   1.00
H2       0.50956    0.19464    0.47649   1.00
H2       0.49378    0.17148    0.43329   1.00
H2       0.54343    0.16985    0.44728   1.00
C4       1.02084    0.24758    0.25185   1.00
C4       0.97912    0.24830    0.25196   1.00
C3       1.04364    0.23563    0.28431   1.00
C3       0.95616    0.24058    0.28559   1.00
C3       1.04123    0.26001    0.21772   1.00
C3       0.95886    0.25710    0.21664   1.00
C2       1.10512    0.24880    0.24997   1.00
C2       0.89488    0.25120    0.25003   1.00
C3       1.08462    0.23642    0.28351   1.00
C3       0.91519    0.24162    0.28458   1.00
C3       1.08258    0.25990    0.21724   1.00
C3       0.91762    0.25964    0.21666   1.00
H1       1.03115    0.22587    0.30945   1.00
H1       0.96852    0.23421    0.31185   1.00
C5       1.02020    0.27231    0.18423   1.00
C5       0.97980    0.26366    0.18159   1.00
H1       1.09955    0.22771    0.30797   1.00
H1       0.90010    0.23545    0.30972   1.00
H1       1.09680    0.26786    0.19218   1.00
H1       0.90368    0.26841    0.19178   1.00
O3       1.03961    0.29030    0.15396   1.00
O3       0.96099    0.26451    0.14591   1.00
Si1      1.04247    0.33785    0.15258   1.00
Si1      0.95279    0.22343    0.12327   1.00
C6       1.07538    0.34110    0.11308   1.00
C6       0.99598    0.35569    0.13965   1.00
C6       1.06253    0.35831    0.19540   1.00
C6       0.96693    0.17953    0.14639   1.00
C6       0.90198    0.22368    0.11676   1.00
C6       0.97477    0.22696    0.07693   1.00
C6       1.11194    0.31368    0.11523   1.00
H2       1.05791    0.32999    0.08886   1.00
C6       1.09147    0.38164    0.09903   1.00
H2       0.98358    0.33095    0.12391   1.00
C6       0.96634    0.36526    0.17303   1.00
C6       0.99336    0.39107    0.11089   1.00
H2       1.08831    0.34012    0.20008   1.00
C6       1.07772    0.40137    0.19291   1.00
C6       1.03849    0.35715    0.23444   1.00
C6       1.01071    0.17469    0.15833   1.00
C6       0.94225    0.16352    0.18138   1.00
H2       0.96212    0.15798    0.12344   1.00
H2       0.89051    0.21957    0.14617   1.00
C6       0.88378    0.26293    0.10202   1.00
C6       0.88393    0.19053    0.09111   1.00
H2       0.95375    0.24353    0.05965   1.00
C6       1.01336    0.25095    0.07468   1.00
C6       0.98244    0.18832    0.05376   1.00
H2       1.10346    0.28316    0.11881   1.00
H2       1.13090    0.32158    0.13963   1.00
H2       1.12917    0.31528    0.08843   1.00
H2       1.09608    0.38120    0.06746   1.00
H2       1.07178    0.40566    0.10544   1.00
H2       1.11964    0.38867    0.11218   1.00
H2       0.93672    0.36787    0.16143   1.00
H2       0.96532    0.34237    0.19502   1.00
H2       0.97352    0.39282    0.18729   1.00
H2       1.00862    0.38504    0.08360   1.00
H2       0.96308    0.39733    0.10292   1.00
H2       1.00550    0.41747    0.12399   1.00
H2       1.05514    0.42090    0.18176   1.00
H2       1.08708    0.41247    0.22135   1.00
H2       1.10332    0.40352    0.17434   1.00
H2       1.01902    0.38220    0.23728   1.00
H2       1.02068    0.33122    0.23755   1.00
H2       1.05828    0.35777    0.25949   1.00
H2       1.01688    0.18846    0.18630   1.00
H2       1.01809    0.14379    0.16133   1.00
H2       1.03048    0.18688    0.13667   1.00
H2       0.95125    0.13380    0.18881   1.00
H2       0.94574    0.18103    0.20762   1.00
H2       0.91122    0.16195    0.17447   1.00
H2       0.85202    0.26239    0.10525   1.00
H2       0.89435    0.28777    0.11901   1.00
H2       0.89035    0.26836    0.07135   1.00
H2       0.89416    0.16176    0.10012   1.00
H2       0.85212    0.19038    0.09390   1.00
H2       0.89085    0.19459    0.06027   1.00
H2       1.03656    0.23803    0.09220   1.00
H2       1.02381    0.25364    0.04468   1.00
H2       1.00834    0.28033    0.08538   1.00
H2       0.99044    0.19464    0.02351   1.00
H2       1.00622    0.17148    0.06671   1.00
H2       0.95657    0.16985    0.05272   1.00
C4       0.74815    -0.02084   0.24758   1.00
C4       0.74804    0.02088    0.24830   1.00
C3       0.71569    -0.04364   0.23563   1.00
C3       0.71441    0.04384    0.24058   1.00
C3       0.78228    -0.04123   0.26001   1.00
C3       0.78336    0.04114    0.25710   1.00
C2       0.75003    -0.10512   0.24880   1.00
C2       0.74997    0.10512    0.25120   1.00
C3       0.71649    -0.08462   0.23642   1.00
C3       0.71542    0.08481    0.24162   1.00
C3       0.78276    -0.08258   0.25990   1.00
C3       0.78334    0.08238    0.25964   1.00
H1       0.69055    -0.03115   0.22587   1.00
H1       0.68815    0.03148    0.23421   1.00
C5       0.81577    -0.02020   0.27231   1.00
C5       0.81841    0.02020    0.26366   1.00
H1       0.69203    -0.09955   0.22771   1.00
H1       0.69028    0.09990    0.23545   1.00
H1       0.80782    -0.09680   0.26786   1.00
H1       0.80822    0.09632    0.26841   1.00
O3       0.84604    -0.03961   0.29030   1.00
O3       0.85409    0.03901    0.26451   1.00
Si1      0.84742    -0.04247   0.33785   1.00
Si1      0.87673    0.04721    0.22343   1.00
C6       0.88692    -0.07538   0.34110   1.00
C6       0.86035    0.00402    0.35569   1.00
C6       0.80460    -0.06253   0.35831   1.00
C6       0.85361    0.03307    0.17953   1.00
C6       0.88324    0.09802    0.22368   1.00
C6       0.92307    0.02523    0.22696   1.00
C6       0.88477    -0.11194   0.31368   1.00
H2       0.91114    -0.05791   0.32999   1.00
C6       0.90097    -0.09147   0.38164   1.00
H2       0.87609    0.01642    0.33095   1.00
C6       0.82697    0.03366    0.36526   1.00
C6       0.88911    0.00664    0.39107   1.00
H2       0.79992    -0.08831   0.34012   1.00
C6       0.80709    -0.07772   0.40137   1.00
C6       0.76556    -0.03849   0.35715   1.00
C6       0.84167    -0.01071   0.17469   1.00
C6       0.81862    0.05775    0.16352   1.00
H2       0.87656    0.03788    0.15798   1.00
H2       0.85383    0.10949    0.21957   1.00
C6       0.89798    0.11622    0.26293   1.00
C6       0.90889    0.11607    0.19053   1.00
H2       0.94035    0.04625    0.24353   1.00
C6       0.92532    -0.01336   0.25095   1.00
C6       0.94624    0.01756    0.18832   1.00
H2       0.88119    -0.10346   0.28316   1.00
H2       0.86037    -0.13090   0.32158   1.00
H2       0.91157    -0.12917   0.31528   1.00
H2       0.93254    -0.09608   0.38120   1.00
H2       0.89456    -0.07178   0.40566   1.00
H2       0.88782    -0.11964   0.38867   1.00
H2       0.83857    0.06328    0.36787   1.00
H2       0.80498    0.03468    0.34237   1.00
H2       0.81271    0.02648    0.39282   1.00
H2       0.91640    -0.00862   0.38504   1.00
H2       0.89708    0.03692    0.39733   1.00
H2       0.87601    -0.00550   0.41747   1.00
H2       0.81824    -0.05514   0.42090   1.00
H2       0.77865    -0.08708   0.41247   1.00
H2       0.82566    -0.10332   0.40352   1.00
H2       0.76272    -0.01902   0.38220   1.00
H2       0.76245    -0.02068   0.33122   1.00
H2       0.74051    -0.05828   0.35777   1.00
H2       0.81370    -0.01688   0.18846   1.00
H2       0.83867    -0.01809   0.14379   1.00
H2       0.86333    -0.03048   0.18688   1.00
H2       0.81119    0.04875    0.13380   1.00
H2       0.79238    0.05426    0.18103   1.00
H2       0.82553    0.08878    0.16195   1.00
H2       0.89475    0.14798    0.26239   1.00
H2       0.88099    0.10565    0.28777   1.00
H2       0.92865    0.10965    0.26836   1.00
H2       0.89988    0.10584    0.16176   1.00
H2       0.90610    0.14788    0.19038   1.00
H2       0.93973    0.10915    0.19459   1.00
H2       0.90780    -0.03656   0.23803   1.00
H2       0.95532    -0.02381   0.25364   1.00
H2       0.91462    -0.00834   0.28033   1.00
H2       0.97649    0.00956    0.19464   1.00
H2       0.93329    -0.00622   0.17148   1.00
H2       0.94728    0.04343    0.16985   1.00
C4       0.74758    0.24815    -0.02084   1.00
C4       0.74830    0.24804    0.02088   1.00
C3       0.73563    0.21569    -0.04364   1.00
C3       0.74058    0.21441    0.04384   1.00
C3       0.76001    0.28228    -0.04123   1.00
C3       0.75710    0.28336    0.04114   1.00
C2       0.74880    0.25003    -0.10512   1.00
C2       0.75120    0.24997    0.10512   1.00
C3       0.73642    0.21649    -0.08462   1.00
C3       0.74162    0.21542    0.08481   1.00
C3       0.75990    0.28276    -0.08258   1.00
C3       0.75964    0.28334    0.08238   1.00
H1       0.72587    0.19055    -0.03115   1.00
H1       0.73421    0.18815    0.03148   1.00
C5       0.77231    0.31577    -0.02020   1.00
C5       0.76366    0.31841    0.02020   1.00
H1       0.72771    0.19203    -0.09955   1.00
H1       0.73545    0.19028    0.09990   1.00
H1       0.76786    0.30782    -0.09680   1.00
H1       0.76841    0.30822    0.09632   1.00
O3       0.79030    0.34604    -0.03961   1.00
O3       0.76451    0.35409    0.03901   1.00
Si1      0.83785    0.34742    -0.04247   1.00
Si1      0.72343    0.37673    0.04721   1.00
C6       0.84110    0.38692    -0.07538   1.00
C6       0.85569    0.36035    0.00402   1.00
C6       0.85831    0.30460    -0.06253   1.00
C6       0.67953    0.35361    0.03307   1.00
C6       0.72368    0.38324    0.09802   1.00
C6       0.72696    0.42307    0.02523   1.00
C6       0.81368    0.38477    -0.11194   1.00
H2       0.82999    0.41114    -0.05791   1.00
C6       0.88164    0.40097    -0.09147   1.00
H2       0.83095    0.37609    0.01642   1.00
C6       0.86526    0.32697    0.03366   1.00
C6       0.89107    0.38911    0.00664   1.00
H2       0.84012    0.29992    -0.08831   1.00
C6       0.90137    0.30709    -0.07772   1.00
C6       0.85715    0.26556    -0.03849   1.00
C6       0.67469    0.34167    -0.01071   1.00
C6       0.66352    0.31862    0.05775   1.00
H2       0.65798    0.37656    0.03788   1.00
H2       0.71957    0.35383    0.10949   1.00
C6       0.76293    0.39798    0.11622   1.00
C6       0.69053    0.40889    0.11607   1.00
H2       0.74353    0.44035    0.04625   1.00
C6       0.75095    0.42532    -0.01336   1.00
C6       0.68832    0.44624    0.01756   1.00
H2       0.78316    0.38119    -0.10346   1.00
H2       0.82158    0.36037    -0.13090   1.00
H2       0.81528    0.41157    -0.12917   1.00
H2       0.88120    0.43254    -0.09608   1.00
H2       0.90566    0.39456    -0.07178   1.00
H2       0.88867    0.38782    -0.11964   1.00
H2       0.86787    0.33857    0.06328   1.00
H2       0.84237    0.30498    0.03468   1.00
H2       0.89282    0.31271    0.02648   1.00
H2       0.88504    0.41640    -0.00862   1.00
H2       0.89733    0.39708    0.03692   1.00
H2       0.91747    0.37601    -0.00550   1.00
H2       0.92090    0.31824    -0.05514   1.00
H2       0.91247    0.27865    -0.08708   1.00
H2       0.90352    0.32566    -0.10332   1.00
H2       0.88220    0.26272    -0.01902   1.00
H2       0.83122    0.26245    -0.02068   1.00
H2       0.85777    0.24051    -0.05828   1.00
H2       0.68846    0.31370    -0.01688   1.00
H2       0.64379    0.33867    -0.01809   1.00
H2       0.68688    0.36333    -0.03048   1.00
H2       0.63380    0.31119    0.04875   1.00
H2       0.68103    0.29238    0.05426   1.00
H2       0.66195    0.32553    0.08878   1.00
H2       0.76239    0.39475    0.14798   1.00
H2       0.78777    0.38099    0.10565   1.00
H2       0.76836    0.42865    0.10965   1.00
H2       0.66176    0.39988    0.10584   1.00
H2       0.69038    0.40610    0.14788   1.00
H2       0.69459    0.43973    0.10915   1.00
H2       0.73803    0.40780    -0.03656   1.00
H2       0.75364    0.45532    -0.02381   1.00
H2       0.78033    0.41462    -0.00834   1.00
H2       0.69464    0.47649    0.00956   1.00
H2       0.67148    0.43329    -0.00622   1.00
H2       0.66985    0.44728    0.04343   1.00
C4       0.91258    0.91685    1.18584   1.00
C4       0.91330    0.91696    1.14412   1.00
C3       0.90063    0.94931    1.20864   1.00
C3       0.90558    0.95059    1.12116   1.00
C3       0.92501    0.88272    1.20623   1.00
C3       0.92210    0.88164    1.12386   1.00
C2       0.91380    0.91497    1.27012   1.00
C2       0.91620    0.91503    1.05988   1.00
C3       0.90142    0.94851    1.24962   1.00
C3       0.90662    0.94958    1.08019   1.00
C3       0.92490    0.88224    1.24758   1.00
C3       0.92464    0.88166    1.08262   1.00
H1       0.89087    0.97445    1.19615   1.00
H1       0.89921    0.97685    1.13352   1.00
C5       0.93731    0.84923    1.18520   1.00
C5       0.92866    0.84659    1.14480   1.00
H1       0.89271    0.97297    1.26455   1.00
H1       0.90045    0.97472    1.06510   1.00
H1       0.93286    0.85718    1.26180   1.00
H1       0.93341    0.85678    1.06868   1.00
O3       0.95530    0.81896    1.20461   1.00
O3       0.92951    0.81091    1.12599   1.00
Si1      1.00285    0.81758    1.20747   1.00
Si1      0.88843    0.78827    1.11779   1.00
C6       1.00610    0.77808    1.24038   1.00
C6       1.02069    0.80465    1.16098   1.00
C6       1.02331    0.86040    1.22753   1.00
C6       0.84453    0.81139    1.13193   1.00
C6       0.88868    0.78176    1.06698   1.00
C6       0.89196    0.74193    1.13977   1.00
C6       0.97868    0.78023    1.27694   1.00
H2       0.99499    0.75386    1.22291   1.00
C6       1.04664    0.76403    1.25647   1.00
H2       0.99595    0.78891    1.14858   1.00
C6       1.03026    0.83803    1.13134   1.00
C6       1.05607    0.77589    1.15836   1.00
H2       1.00512    0.86508    1.25331   1.00
C6       1.06637    0.85791    1.24272   1.00
C6       1.02215    0.89944    1.20349   1.00
C6       0.83969    0.82333    1.17571   1.00
C6       0.82852    0.84638    1.10725   1.00
H2       0.82298    0.78844    1.12712   1.00
H2       0.88457    0.81117    1.05551   1.00
C6       0.92793    0.76702    1.04878   1.00
C6       0.85553    0.75611    1.04893   1.00
H2       0.90853    0.72465    1.11875   1.00
C6       0.91595    0.73968    1.17836   1.00
C6       0.85332    0.71876    1.14744   1.00
H2       0.94816    0.78381    1.26846   1.00
H2       0.98658    0.80463    1.29590   1.00
H2       0.98028    0.75343    1.29417   1.00
H2       1.04620    0.73246    1.26108   1.00
H2       1.07066    0.77044    1.23678   1.00
H2       1.05367    0.77718    1.28464   1.00
H2       1.03287    0.82643    1.10172   1.00
H2       1.00737    0.86002    1.13032   1.00
H2       1.05782    0.85229    1.13852   1.00
H2       1.05004    0.74860    1.17362   1.00
H2       1.06233    0.76792    1.12808   1.00
H2       1.08247    0.78899    1.17050   1.00
H2       1.08590    0.84676    1.22014   1.00
H2       1.07747    0.88635    1.25208   1.00
H2       1.06852    0.83934    1.26832   1.00
H2       1.04720    0.90228    1.18402   1.00
H2       0.99622    0.90255    1.18568   1.00
H2       1.02277    0.92449    1.22328   1.00
H2       0.85346    0.85130    1.18188   1.00
H2       0.80879    0.82633    1.18309   1.00
H2       0.85188    0.80167    1.19548   1.00
H2       0.79880    0.85381    1.11625   1.00
H2       0.84603    0.87262    1.11074   1.00
H2       0.82695    0.83947    1.07622   1.00
H2       0.92739    0.77025    1.01702   1.00
H2       0.95277    0.78401    1.05935   1.00
H2       0.93336    0.73635    1.05535   1.00
H2       0.82676    0.76512    1.05916   1.00
H2       0.85538    0.75890    1.01712   1.00
H2       0.85959    0.72527    1.05585   1.00
H2       0.90303    0.75720    1.20156   1.00
H2       0.91864    0.70968    1.18881   1.00
H2       0.94533    0.75038    1.17334   1.00
H2       0.85964    0.68851    1.15544   1.00
H2       0.83648    0.73171    1.17122   1.00
H2       0.83485    0.71772    1.12157   1.00
C4       0.91685    1.18584    0.91258   1.00
C4       0.91696    1.14412    0.91330   1.00
C3       0.94931    1.20864    0.90063   1.00
C3       0.95059    1.12116    0.90558   1.00
C3       0.88272    1.20623    0.92501   1.00
C3       0.88164    1.12386    0.92210   1.00
C2       0.91497    1.27012    0.91380   1.00
C2       0.91503    1.05988    0.91620   1.00
C3       0.94851    1.24962    0.90142   1.00
C3       0.94958    1.08019    0.90662   1.00
C3       0.88224    1.24758    0.92490   1.00
C3       0.88166    1.08262    0.92464   1.00
H1       0.97445    1.19615    0.89087   1.00
H1       0.97685    1.13352    0.89921   1.00
C5       0.84923    1.18520    0.93731   1.00
C5       0.84659    1.14480    0.92866   1.00
H1       0.97297    1.26455    0.89271   1.00
H1       0.97472    1.06510    0.90045   1.00
H1       0.85718    1.26180    0.93286   1.00
H1       0.85678    1.06868    0.93341   1.00
O3       0.81896    1.20461    0.95530   1.00
O3       0.81091    1.12599    0.92951   1.00
Si1      0.81758    1.20747    1.00285   1.00
Si1      0.78827    1.11779    0.88843   1.00
C6       0.77808    1.24038    1.00610   1.00
C6       0.80465    1.16098    1.02069   1.00
C6       0.86040    1.22753    1.02331   1.00
C6       0.81139    1.13193    0.84453   1.00
C6       0.78176    1.06698    0.88868   1.00
C6       0.74193    1.13977    0.89196   1.00
C6       0.78023    1.27694    0.97868   1.00
H2       0.75386    1.22291    0.99499   1.00
C6       0.76403    1.25647    1.04664   1.00
H2       0.78891    1.14858    0.99595   1.00
C6       0.83803    1.13134    1.03026   1.00
C6       0.77589    1.15836    1.05607   1.00
H2       0.86508    1.25331    1.00512   1.00
C6       0.85791    1.24272    1.06637   1.00
C6       0.89944    1.20349    1.02215   1.00
C6       0.82333    1.17571    0.83969   1.00
C6       0.84638    1.10725    0.82852   1.00
H2       0.78844    1.12712    0.82298   1.00
H2       0.81117    1.05551    0.88457   1.00
C6       0.76702    1.04878    0.92793   1.00
C6       0.75611    1.04893    0.85553   1.00
H2       0.72465    1.11875    0.90853   1.00
C6       0.73968    1.17836    0.91595   1.00
C6       0.71876    1.14744    0.85332   1.00
H2       0.78381    1.26846    0.94816   1.00
H2       0.80463    1.29590    0.98658   1.00
H2       0.75343    1.29417    0.98028   1.00
H2       0.73246    1.26108    1.04620   1.00
H2       0.77044    1.23678    1.07066   1.00
H2       0.77718    1.28464    1.05367   1.00
H2       0.82643    1.10172    1.03287   1.00
H2       0.86002    1.13032    1.00737   1.00
H2       0.85229    1.13852    1.05782   1.00
H2       0.74860    1.17362    1.05004   1.00
H2       0.76792    1.12808    1.06233   1.00
H2       0.78899    1.17050    1.08247   1.00
H2       0.84676    1.22014    1.08590   1.00
H2       0.88635    1.25208    1.07747   1.00
H2       0.83934    1.26832    1.06852   1.00
H2       0.90228    1.18402    1.04720   1.00
H2       0.90255    1.18568    0.99622   1.00
H2       0.92449    1.22328    1.02277   1.00
H2       0.85130    1.18188    0.85346   1.00
H2       0.82633    1.18309    0.80879   1.00
H2       0.80167    1.19548    0.85188   1.00
H2       0.85381    1.11625    0.79880   1.00
H2       0.87262    1.11074    0.84603   1.00
H2       0.83947    1.07622    0.82695   1.00
H2       0.77025    1.01702    0.92739   1.00
H2       0.78401    1.05935    0.95277   1.00
H2       0.73635    1.05535    0.93336   1.00
H2       0.76512    1.05916    0.82676   1.00
H2       0.75890    1.01712    0.85538   1.00
H2       0.72527    1.05585    0.85959   1.00
H2       0.75720    1.20156    0.90303   1.00
H2       0.70968    1.18881    0.91864   1.00
H2       0.75038    1.17334    0.94533   1.00
H2       0.68851    1.15544    0.85964   1.00
H2       0.73171    1.17122    0.83648   1.00
H2       0.71772    1.12157    0.83485   1.00
C4       0.64416    0.91258    0.91315   1.00
C4       0.68588    0.91330    0.91304   1.00
C3       0.62136    0.90063    0.88069   1.00
C3       0.70884    0.90558    0.87941   1.00
C3       0.62377    0.92501    0.94728   1.00
C3       0.70614    0.92210    0.94836   1.00
C2       0.55988    0.91380    0.91503   1.00
C2       0.77012    0.91620    0.91497   1.00
C3       0.58038    0.90142    0.88149   1.00
C3       0.74981    0.90662    0.88042   1.00
C3       0.58242    0.92490    0.94776   1.00
C3       0.74738    0.92464    0.94834   1.00
H1       0.63385    0.89087    0.85555   1.00
H1       0.69648    0.89921    0.85315   1.00
C5       0.64480    0.93731    0.98077   1.00
C5       0.68520    0.92866    0.98341   1.00
H1       0.56545    0.89271    0.85703   1.00
H1       0.76490    0.90045    0.85528   1.00
H1       0.56820    0.93286    0.97282   1.00
H1       0.76132    0.93341    0.97322   1.00
O3       0.62539    0.95530    1.01104   1.00
O3       0.70401    0.92951    1.01909   1.00
Si1      0.62253    1.00285    1.01242   1.00
Si1      0.71221    0.88843    1.04173   1.00
C6       0.58962    1.00610    1.05192   1.00
C6       0.66902    1.02069    1.02535   1.00
C6       0.60247    1.02331    0.96960   1.00
C6       0.69807    0.84453    1.01861   1.00
C6       0.76302    0.88868    1.04824   1.00
C6       0.69023    0.89196    1.08807   1.00
C6       0.55306    0.97868    1.04977   1.00
H2       0.60709    0.99499    1.07614   1.00
C6       0.57353    1.04664    1.06597   1.00
H2       0.68142    0.99595    1.04109   1.00
C6       0.69866    1.03026    0.99197   1.00
C6       0.67164    1.05607    1.05411   1.00
H2       0.57669    1.00512    0.96492   1.00
C6       0.58728    1.06637    0.97209   1.00
C6       0.62651    1.02215    0.93056   1.00
C6       0.65429    0.83969    1.00667   1.00
C6       0.72275    0.82852    0.98362   1.00
H2       0.70288    0.82298    1.04156   1.00
H2       0.77449    0.88457    1.01883   1.00
C6       0.78122    0.92793    1.06298   1.00
C6       0.78107    0.85553    1.07389   1.00
H2       0.71125    0.90853    1.10535   1.00
C6       0.65164    0.91595    1.09032   1.00
C6       0.68256    0.85332    1.11124   1.00
H2       0.56154    0.94816    1.04619   1.00
H2       0.53410    0.98658    1.02537   1.00
H2       0.53583    0.98028    1.07657   1.00
H2       0.56892    1.04620    1.09754   1.00
H2       0.59322    1.07066    1.05956   1.00
H2       0.54536    1.05367    1.05282   1.00
H2       0.72828    1.03287    1.00357   1.00
H2       0.69968    1.00737    0.96998   1.00
H2       0.69148    1.05782    0.97771   1.00
H2       0.65638    1.05004    1.08140   1.00
H2       0.70192    1.06233    1.06208   1.00
H2       0.65950    1.08247    1.04101   1.00
H2       0.60986    1.08590    0.98324   1.00
H2       0.57792    1.07747    0.94365   1.00
H2       0.56168    1.06852    0.99066   1.00
H2       0.64598    1.04720    0.92772   1.00
H2       0.64432    0.99622    0.92745   1.00
H2       0.60672    1.02277    0.90551   1.00
H2       0.64812    0.85346    0.97870   1.00
H2       0.64691    0.80879    1.00367   1.00
H2       0.63452    0.85188    1.02833   1.00
H2       0.71375    0.79880    0.97619   1.00
H2       0.71926    0.84603    0.95738   1.00
H2       0.75378    0.82695    0.99053   1.00
H2       0.81298    0.92739    1.05975   1.00
H2       0.77065    0.95277    1.04599   1.00
H2       0.77465    0.93336    1.09365   1.00
H2       0.77084    0.82676    1.06488   1.00
H2       0.81288    0.85538    1.07110   1.00
H2       0.77415    0.85959    1.10473   1.00
H2       0.62844    0.90303    1.07280   1.00
H2       0.64119    0.91864    1.12032   1.00
H2       0.65666    0.94533    1.07962   1.00
H2       0.67456    0.85964    1.14149   1.00
H2       0.65878    0.83648    1.09829   1.00
H2       0.70843    0.83485    1.11228   1.00
C4       1.18584    0.91258    0.91685   1.00
C4       1.14412    0.91330    0.91696   1.00
C3       1.20864    0.90063    0.94931   1.00
C3       1.12116    0.90558    0.95059   1.00
C3       1.20623    0.92501    0.88272   1.00
C3       1.12386    0.92210    0.88164   1.00
C2       1.27012    0.91380    0.91497   1.00
C2       1.05988    0.91620    0.91503   1.00
C3       1.24962    0.90142    0.94851   1.00
C3       1.08019    0.90662    0.94958   1.00
C3       1.24758    0.92490    0.88224   1.00
C3       1.08262    0.92464    0.88166   1.00
H1       1.19615    0.89087    0.97445   1.00
H1       1.13352    0.89921    0.97685   1.00
C5       1.18520    0.93731    0.84923   1.00
C5       1.14480    0.92866    0.84659   1.00
H1       1.26455    0.89271    0.97297   1.00
H1       1.06510    0.90045    0.97472   1.00
H1       1.26180    0.93286    0.85718   1.00
H1       1.06868    0.93341    0.85678   1.00
O3       1.20461    0.95530    0.81896   1.00
O3       1.12599    0.92951    0.81091   1.00
Si1      1.20747    1.00285    0.81758   1.00
Si1      1.11779    0.88843    0.78827   1.00
C6       1.24038    1.00610    0.77808   1.00
C6       1.16098    1.02069    0.80465   1.00
C6       1.22753    1.02331    0.86040   1.00
C6       1.13193    0.84453    0.81139   1.00
C6       1.06698    0.88868    0.78176   1.00
C6       1.13977    0.89196    0.74193   1.00
C6       1.27694    0.97868    0.78023   1.00
H2       1.22291    0.99499    0.75386   1.00
C6       1.25647    1.04664    0.76403   1.00
H2       1.14858    0.99595    0.78891   1.00
C6       1.13134    1.03026    0.83803   1.00
C6       1.15836    1.05607    0.77589   1.00
H2       1.25331    1.00512    0.86508   1.00
C6       1.24272    1.06637    0.85791   1.00
C6       1.20349    1.02215    0.89944   1.00
C6       1.17571    0.83969    0.82333   1.00
C6       1.10725    0.82852    0.84638   1.00
H2       1.12712    0.82298    0.78844   1.00
H2       1.05551    0.88457    0.81117   1.00
C6       1.04878    0.92793    0.76702   1.00
C6       1.04893    0.85553    0.75611   1.00
H2       1.11875    0.90853    0.72465   1.00
C6       1.17836    0.91595    0.73968   1.00
C6       1.14744    0.85332    0.71876   1.00
H2       1.26846    0.94816    0.78381   1.00
H2       1.29590    0.98658    0.80463   1.00
H2       1.29417    0.98028    0.75343   1.00
H2       1.26108    1.04620    0.73246   1.00
H2       1.23678    1.07066    0.77044   1.00
H2       1.28464    1.05367    0.77718   1.00
H2       1.10172    1.03287    0.82643   1.00
H2       1.13032    1.00737    0.86002   1.00
H2       1.13852    1.05782    0.85229   1.00
H2       1.17362    1.05004    0.74860   1.00
H2       1.12808    1.06233    0.76792   1.00
H2       1.17050    1.08247    0.78899   1.00
H2       1.22014    1.08590    0.84676   1.00
H2       1.25208    1.07747    0.88635   1.00
H2       1.26832    1.06852    0.83934   1.00
H2       1.18402    1.04720    0.90228   1.00
H2       1.18568    0.99622    0.90255   1.00
H2       1.22328    1.02277    0.92449   1.00
H2       1.18188    0.85346    0.85130   1.00
H2       1.18309    0.80879    0.82633   1.00
H2       1.19548    0.85188    0.80167   1.00
H2       1.11625    0.79880    0.85381   1.00
H2       1.11074    0.84603    0.87262   1.00
H2       1.07622    0.82695    0.83947   1.00
H2       1.01702    0.92739    0.77025   1.00
H2       1.05935    0.95277    0.78401   1.00
H2       1.05535    0.93336    0.73635   1.00
H2       1.05916    0.82676    0.76512   1.00
H2       1.01712    0.85538    0.75890   1.00
H2       1.05585    0.85959    0.72527   1.00
H2       1.20156    0.90303    0.75720   1.00
H2       1.18881    0.91864    0.70968   1.00
H2       1.17334    0.94533    0.75038   1.00
H2       1.15544    0.85964    0.68851   1.00
H2       1.17122    0.83648    0.73171   1.00
H2       1.12157    0.83485    0.71772   1.00
C4       0.91315    0.64416    0.91258   1.00
C4       0.91304    0.68588    0.91330   1.00
C3       0.88069    0.62136    0.90063   1.00
C3       0.87941    0.70884    0.90558   1.00
C3       0.94728    0.62377    0.92501   1.00
C3       0.94836    0.70614    0.92210   1.00
C2       0.91503    0.55988    0.91380   1.00
C2       0.91497    0.77012    0.91620   1.00
C3       0.88149    0.58038    0.90142   1.00
C3       0.88042    0.74981    0.90662   1.00
C3       0.94776    0.58242    0.92490   1.00
C3       0.94834    0.74738    0.92464   1.00
H1       0.85555    0.63385    0.89087   1.00
H1       0.85315    0.69648    0.89921   1.00
C5       0.98077    0.64480    0.93731   1.00
C5       0.98341    0.68520    0.92866   1.00
H1       0.85703    0.56545    0.89271   1.00
H1       0.85528    0.76490    0.90045   1.00
H1       0.97282    0.56820    0.93286   1.00
H1       0.97322    0.76132    0.93341   1.00
O3       1.01104    0.62539    0.95530   1.00
O3       1.01909    0.70401    0.92951   1.00
Si1      1.01242    0.62253    1.00285   1.00
Si1      1.04173    0.71221    0.88843   1.00
C6       1.05192    0.58962    1.00610   1.00
C6       1.02535    0.66902    1.02069   1.00
C6       0.96960    0.60247    1.02331   1.00
C6       1.01861    0.69807    0.84453   1.00
C6       1.04824    0.76302    0.88868   1.00
C6       1.08807    0.69023    0.89196   1.00
C6       1.04977    0.55306    0.97868   1.00
H2       1.07614    0.60709    0.99499   1.00
C6       1.06597    0.57353    1.04664   1.00
H2       1.04109    0.68142    0.99595   1.00
C6       0.99197    0.69866    1.03026   1.00
C6       1.05411    0.67164    1.05607   1.00
H2       0.96492    0.57669    1.00512   1.00
C6       0.97209    0.58728    1.06637   1.00
C6       0.93056    0.62651    1.02215   1.00
C6       1.00667    0.65429    0.83969   1.00
C6       0.98362    0.72275    0.82852   1.00
H2       1.04156    0.70288    0.82298   1.00
H2       1.01883    0.77449    0.88457   1.00
C6       1.06298    0.78122    0.92793   1.00
C6       1.07389    0.78107    0.85553   1.00
H2       1.10535    0.71125    0.90853   1.00
C6       1.09032    0.65164    0.91595   1.00
C6       1.11124    0.68256    0.85332   1.00
H2       1.04619    0.56154    0.94816   1.00
H2       1.02537    0.53410    0.98658   1.00
H2       1.07657    0.53583    0.98028   1.00
H2       1.09754    0.56892    1.04620   1.00
H2       1.05956    0.59322    1.07066   1.00
H2       1.05282    0.54536    1.05367   1.00
H2       1.00357    0.72828    1.03287   1.00
H2       0.96998    0.69968    1.00737   1.00
H2       0.97771    0.69148    1.05782   1.00
H2       1.08140    0.65638    1.05004   1.00
H2       1.06208    0.70192    1.06233   1.00
H2       1.04101    0.65950    1.08247   1.00
H2       0.98324    0.60986    1.08590   1.00
H2       0.94365    0.57792    1.07747   1.00
H2       0.99066    0.56168    1.06852   1.00
H2       0.92772    0.64598    1.04720   1.00
H2       0.92745    0.64432    0.99622   1.00
H2       0.90551    0.60672    1.02277   1.00
H2       0.97870    0.64812    0.85346   1.00
H2       1.00367    0.64691    0.80879   1.00
H2       1.02833    0.63452    0.85188   1.00
H2       0.97619    0.71375    0.79880   1.00
H2       0.95738    0.71926    0.84603   1.00
H2       0.99053    0.75378    0.82695   1.00
H2       1.05975    0.81298    0.92739   1.00
H2       1.04599    0.77065    0.95277   1.00
H2       1.09365    0.77465    0.93336   1.00
H2       1.06488    0.77084    0.82676   1.00
H2       1.07110    0.81288    0.85538   1.00
H2       1.10473    0.77415    0.85959   1.00
H2       1.07280    0.62844    0.90303   1.00
H2       1.12032    0.64119    0.91864   1.00
H2       1.07962    0.65666    0.94533   1.00
H2       1.14149    0.67456    0.85964   1.00
H2       1.09829    0.65878    0.83648   1.00
H2       1.11228    0.70843    0.83485   1.00
C4       0.91258    0.91315    0.64416   1.00
C4       0.91330    0.91304    0.68588   1.00
C3       0.90063    0.88069    0.62136   1.00
C3       0.90558    0.87941    0.70884   1.00
C3       0.92501    0.94728    0.62377   1.00
C3       0.92210    0.94836    0.70614   1.00
C2       0.91380    0.91503    0.55988   1.00
C2       0.91620    0.91497    0.77012   1.00
C3       0.90142    0.88149    0.58038   1.00
C3       0.90662    0.88042    0.74981   1.00
C3       0.92490    0.94776    0.58242   1.00
C3       0.92464    0.94834    0.74738   1.00
H1       0.89087    0.85555    0.63385   1.00
H1       0.89921    0.85315    0.69648   1.00
C5       0.93731    0.98077    0.64480   1.00
C5       0.92866    0.98341    0.68520   1.00
H1       0.89271    0.85703    0.56545   1.00
H1       0.90045    0.85528    0.76490   1.00
H1       0.93286    0.97282    0.56820   1.00
H1       0.93341    0.97322    0.76132   1.00
O3       0.95530    1.01104    0.62539   1.00
O3       0.92951    1.01909    0.70401   1.00
Si1      1.00285    1.01242    0.62253   1.00
Si1      0.88843    1.04173    0.71221   1.00
C6       1.00610    1.05192    0.58962   1.00
C6       1.02069    1.02535    0.66902   1.00
C6       1.02331    0.96960    0.60247   1.00
C6       0.84453    1.01861    0.69807   1.00
C6       0.88868    1.04824    0.76302   1.00
C6       0.89196    1.08807    0.69023   1.00
C6       0.97868    1.04977    0.55306   1.00
H2       0.99499    1.07614    0.60709   1.00
C6       1.04664    1.06597    0.57353   1.00
H2       0.99595    1.04109    0.68142   1.00
C6       1.03026    0.99197    0.69866   1.00
C6       1.05607    1.05411    0.67164   1.00
H2       1.00512    0.96492    0.57669   1.00
C6       1.06637    0.97209    0.58728   1.00
C6       1.02215    0.93056    0.62651   1.00
C6       0.83969    1.00667    0.65429   1.00
C6       0.82852    0.98362    0.72275   1.00
H2       0.82298    1.04156    0.70288   1.00
H2       0.88457    1.01883    0.77449   1.00
C6       0.92793    1.06298    0.78122   1.00
C6       0.85553    1.07389    0.78107   1.00
H2       0.90853    1.10535    0.71125   1.00
C6       0.91595    1.09032    0.65164   1.00
C6       0.85332    1.11124    0.68256   1.00
H2       0.94816    1.04619    0.56154   1.00
H2       0.98658    1.02537    0.53410   1.00
H2       0.98028    1.07657    0.53583   1.00
H2       1.04620    1.09754    0.56892   1.00
H2       1.07066    1.05956    0.59322   1.00
H2       1.05367    1.05282    0.54536   1.00
H2       1.03287    1.00357    0.72828   1.00
H2       1.00737    0.96998    0.69968   1.00
H2       1.05782    0.97771    0.69148   1.00
H2       1.05004    1.08140    0.65638   1.00
H2       1.06233    1.06208    0.70192   1.00
H2       1.08247    1.04101    0.65950   1.00
H2       1.08590    0.98324    0.60986   1.00
H2       1.07747    0.94365    0.57792   1.00
H2       1.06852    0.99066    0.56168   1.00
H2       1.04720    0.92772    0.64598   1.00
H2       0.99622    0.92745    0.64432   1.00
H2       1.02277    0.90551    0.60672   1.00
H2       0.85346    0.97870    0.64812   1.00
H2       0.80879    1.00367    0.64691   1.00
H2       0.85188    1.02833    0.63452   1.00
H2       0.79880    0.97619    0.71375   1.00
H2       0.84603    0.95738    0.71926   1.00
H2       0.82695    0.99053    0.75378   1.00
H2       0.92739    1.05975    0.81298   1.00
H2       0.95277    1.04599    0.77065   1.00
H2       0.93336    1.09365    0.77465   1.00
H2       0.82676    1.06488    0.77084   1.00
H2       0.85538    1.07110    0.81288   1.00
H2       0.85959    1.10473    0.77415   1.00
H2       0.90303    1.07280    0.62844   1.00
H2       0.91864    1.12032    0.64119   1.00
H2       0.94533    1.07962    0.65666   1.00
H2       0.85964    1.14149    0.67456   1.00
H2       0.83648    1.09829    0.65878   1.00
H2       0.83485    1.11228    0.70843   1.00
C4       0.41258    0.41685    1.18584   1.00
C4       0.41330    0.41696    1.14412   1.00
C3       0.40063    0.44931    1.20864   1.00
C3       0.40558    0.45059    1.12116   1.00
C3       0.42501    0.38272    1.20623   1.00
C3       0.42210    0.38164    1.12386   1.00
C2       0.41380    0.41497    1.27012   1.00
C2       0.41620    0.41503    1.05988   1.00
C3       0.40142    0.44851    1.24962   1.00
C3       0.40662    0.44958    1.08019   1.00
C3       0.42490    0.38224    1.24758   1.00
C3       0.42464    0.38166    1.08262   1.00
H1       0.39087    0.47445    1.19615   1.00
H1       0.39921    0.47685    1.13352   1.00
C5       0.43731    0.34923    1.18520   1.00
C5       0.42866    0.34659    1.14480   1.00
H1       0.39271    0.47297    1.26455   1.00
H1       0.40045    0.47472    1.06510   1.00
H1       0.43286    0.35718    1.26180   1.00
H1       0.43341    0.35678    1.06868   1.00
O3       0.45530    0.31896    1.20461   1.00
O3       0.42951    0.31091    1.12599   1.00
Si1      0.50285    0.31758    1.20747   1.00
Si1      0.38843    0.28827    1.11779   1.00
C6       0.50610    0.27808    1.24038   1.00
C6       0.52069    0.30465    1.16098   1.00
C6       0.52331    0.36040    1.22753   1.00
C6       0.34453    0.31139    1.13193   1.00
C6       0.38868    0.28176    1.06698   1.00
C6       0.39196    0.24193    1.13977   1.00
C6       0.47868    0.28023    1.27694   1.00
H2       0.49499    0.25386    1.22291   1.00
C6       0.54664    0.26403    1.25647   1.00
H2       0.49595    0.28891    1.14858   1.00
C6       0.53026    0.33803    1.13134   1.00
C6       0.55607    0.27589    1.15836   1.00
H2       0.50512    0.36508    1.25331   1.00
C6       0.56637    0.35791    1.24272   1.00
C6       0.52215    0.39944    1.20349   1.00
C6       0.33969    0.32333    1.17571   1.00
C6       0.32852    0.34638    1.10725   1.00
H2       0.32298    0.28844    1.12712   1.00
H2       0.38457    0.31117    1.05551   1.00
C6       0.42793    0.26702    1.04878   1.00
C6       0.35553    0.25611    1.04893   1.00
H2       0.40853    0.22465    1.11875   1.00
C6       0.41595    0.23968    1.17836   1.00
C6       0.35332    0.21876    1.14744   1.00
H2       0.44816    0.28381    1.26846   1.00
H2       0.48658    0.30463    1.29590   1.00
H2       0.48028    0.25343    1.29417   1.00
H2       0.54620    0.23246    1.26108   1.00
H2       0.57066    0.27044    1.23678   1.00
H2       0.55367    0.27718    1.28464   1.00
H2       0.53287    0.32643    1.10172   1.00
H2       0.50737    0.36002    1.13032   1.00
H2       0.55782    0.35229    1.13852   1.00
H2       0.55004    0.24860    1.17362   1.00
H2       0.56233    0.26792    1.12808   1.00
H2       0.58247    0.28899    1.17050   1.00
H2       0.58590    0.34676    1.22014   1.00
H2       0.57747    0.38635    1.25208   1.00
H2       0.56852    0.33934    1.26832   1.00
H2       0.54720    0.40228    1.18402   1.00
H2       0.49622    0.40255    1.18568   1.00
H2       0.52277    0.42449    1.22328   1.00
H2       0.35346    0.35130    1.18188   1.00
H2       0.30879    0.32633    1.18309   1.00
H2       0.35188    0.30167    1.19548   1.00
H2       0.29880    0.35381    1.11625   1.00
H2       0.34603    0.37262    1.11074   1.00
H2       0.32695    0.33947    1.07622   1.00
H2       0.42739    0.27025    1.01702   1.00
H2       0.45277    0.28401    1.05935   1.00
H2       0.43336    0.23635    1.05535   1.00
H2       0.32676    0.26512    1.05916   1.00
H2       0.35538    0.25890    1.01712   1.00
H2       0.35959    0.22527    1.05585   1.00
H2       0.40303    0.25720    1.20156   1.00
H2       0.41864    0.20968    1.18881   1.00
H2       0.44533    0.25038    1.17334   1.00
H2       0.35964    0.18851    1.15544   1.00
H2       0.33648    0.23171    1.17122   1.00
H2       0.33485    0.21772    1.12157   1.00
C4       0.41685    0.68584    0.91258   1.00
C4       0.41696    0.64412    0.91330   1.00
C3       0.44931    0.70864    0.90063   1.00
C3       0.45059    0.62116    0.90558   1.00
C3       0.38272    0.70623    0.92501   1.00
C3       0.38164    0.62386    0.92210   1.00
C2       0.41497    0.77012    0.91380   1.00
C2       0.41503    0.55988    0.91620   1.00
C3       0.44851    0.74962    0.90142   1.00
C3       0.44958    0.58019    0.90662   1.00
C3       0.38224    0.74758    0.92490   1.00
C3       0.38166    0.58262    0.92464   1.00
H1       0.47445    0.69615    0.89087   1.00
H1       0.47685    0.63352    0.89921   1.00
C5       0.34923    0.68520    0.93731   1.00
C5       0.34659    0.64480    0.92866   1.00
H1       0.47297    0.76455    0.89271   1.00
H1       0.47472    0.56510    0.90045   1.00
H1       0.35718    0.76180    0.93286   1.00
H1       0.35678    0.56868    0.93341   1.00
O3       0.31896    0.70461    0.95530   1.00
O3       0.31091    0.62599    0.92951   1.00
Si1      0.31758    0.70747    1.00285   1.00
Si1      0.28827    0.61779    0.88843   1.00
C6       0.27808    0.74038    1.00610   1.00
C6       0.30465    0.66098    1.02069   1.00
C6       0.36040    0.72753    1.02331   1.00
C6       0.31139    0.63193    0.84453   1.00
C6       0.28176    0.56698    0.88868   1.00
C6       0.24193    0.63977    0.89196   1.00
C6       0.28023    0.77694    0.97868   1.00
H2       0.25386    0.72291    0.99499   1.00
C6       0.26403    0.75647    1.04664   1.00
H2       0.28891    0.64858    0.99595   1.00
C6       0.33803    0.63134    1.03026   1.00
C6       0.27589    0.65836    1.05607   1.00
H2       0.36508    0.75331    1.00512   1.00
C6       0.35791    0.74272    1.06637   1.00
C6       0.39944    0.70349    1.02215   1.00
C6       0.32333    0.67571    0.83969   1.00
C6       0.34638    0.60725    0.82852   1.00
H2       0.28844    0.62712    0.82298   1.00
H2       0.31117    0.55551    0.88457   1.00
C6       0.26702    0.54878    0.92793   1.00
C6       0.25611    0.54893    0.85553   1.00
H2       0.22465    0.61875    0.90853   1.00
C6       0.23968    0.67836    0.91595   1.00
C6       0.21876    0.64744    0.85332   1.00
H2       0.28381    0.76846    0.94816   1.00
H2       0.30463    0.79590    0.98658   1.00
H2       0.25343    0.79417    0.98028   1.00
H2       0.23246    0.76108    1.04620   1.00
H2       0.27044    0.73678    1.07066   1.00
H2       0.27718    0.78464    1.05367   1.00
H2       0.32643    0.60172    1.03287   1.00
H2       0.36002    0.63032    1.00737   1.00
H2       0.35229    0.63852    1.05782   1.00
H2       0.24860    0.67362    1.05004   1.00
H2       0.26792    0.62808    1.06233   1.00
H2       0.28899    0.67050    1.08247   1.00
H2       0.34676    0.72014    1.08590   1.00
H2       0.38635    0.75208    1.07747   1.00
H2       0.33934    0.76832    1.06852   1.00
H2       0.40228    0.68402    1.04720   1.00
H2       0.40255    0.68568    0.99622   1.00
H2       0.42449    0.72328    1.02277   1.00
H2       0.35130    0.68188    0.85346   1.00
H2       0.32633    0.68309    0.80879   1.00
H2       0.30167    0.69548    0.85188   1.00
H2       0.35381    0.61625    0.79880   1.00
H2       0.37262    0.61074    0.84603   1.00
H2       0.33947    0.57622    0.82695   1.00
H2       0.27025    0.51702    0.92739   1.00
H2       0.28401    0.55935    0.95277   1.00
H2       0.23635    0.55535    0.93336   1.00
H2       0.26512    0.55916    0.82676   1.00
H2       0.25890    0.51712    0.85538   1.00
H2       0.22527    0.55585    0.85959   1.00
H2       0.25720    0.70156    0.90303   1.00
H2       0.20968    0.68881    0.91864   1.00
H2       0.25038    0.67334    0.94533   1.00
H2       0.18851    0.65544    0.85964   1.00
H2       0.23171    0.67122    0.83648   1.00
H2       0.21772    0.62157    0.83485   1.00
C4       0.14416    0.41258    0.91315   1.00
C4       0.18588    0.41330    0.91304   1.00
C3       0.12136    0.40063    0.88069   1.00
C3       0.20884    0.40558    0.87941   1.00
C3       0.12377    0.42501    0.94728   1.00
C3       0.20614    0.42210    0.94836   1.00
C2       0.05988    0.41380    0.91503   1.00
C2       0.27012    0.41620    0.91497   1.00
C3       0.08038    0.40142    0.88149   1.00
C3       0.24981    0.40662    0.88042   1.00
C3       0.08242    0.42490    0.94776   1.00
C3       0.24738    0.42464    0.94834   1.00
H1       0.13385    0.39087    0.85555   1.00
H1       0.19648    0.39921    0.85315   1.00
C5       0.14480    0.43731    0.98077   1.00
C5       0.18520    0.42866    0.98341   1.00
H1       0.06545    0.39271    0.85703   1.00
H1       0.26490    0.40045    0.85528   1.00
H1       0.06820    0.43286    0.97282   1.00
H1       0.26132    0.43341    0.97322   1.00
O3       0.12539    0.45530    1.01104   1.00
O3       0.20401    0.42951    1.01909   1.00
Si1      0.12253    0.50285    1.01242   1.00
Si1      0.21221    0.38843    1.04173   1.00
C6       0.08962    0.50610    1.05192   1.00
C6       0.16902    0.52069    1.02535   1.00
C6       0.10247    0.52331    0.96960   1.00
C6       0.19807    0.34453    1.01861   1.00
C6       0.26302    0.38868    1.04824   1.00
C6       0.19023    0.39196    1.08807   1.00
C6       0.05306    0.47868    1.04977   1.00
H2       0.10709    0.49499    1.07614   1.00
C6       0.07353    0.54664    1.06597   1.00
H2       0.18142    0.49595    1.04109   1.00
C6       0.19866    0.53026    0.99197   1.00
C6       0.17164    0.55607    1.05411   1.00
H2       0.07669    0.50512    0.96492   1.00
C6       0.08728    0.56637    0.97209   1.00
C6       0.12651    0.52215    0.93056   1.00
C6       0.15429    0.33969    1.00667   1.00
C6       0.22275    0.32852    0.98362   1.00
H2       0.20288    0.32298    1.04156   1.00
H2       0.27449    0.38457    1.01883   1.00
C6       0.28122    0.42793    1.06298   1.00
C6       0.28107    0.35553    1.07389   1.00
H2       0.21125    0.40853    1.10535   1.00
C6       0.15164    0.41595    1.09032   1.00
C6       0.18256    0.35332    1.11124   1.00
H2       0.06154    0.44816    1.04619   1.00
H2       0.03410    0.48658    1.02537   1.00
H2       0.03583    0.48028    1.07657   1.00
H2       0.06892    0.54620    1.09754   1.00
H2       0.09322    0.57066    1.05956   1.00
H2       0.04536    0.55367    1.05282   1.00
H2       0.22828    0.53287    1.00357   1.00
H2       0.19968    0.50737    0.96998   1.00
H2       0.19148    0.55782    0.97771   1.00
H2       0.15638    0.55004    1.08140   1.00
H2       0.20192    0.56233    1.06208   1.00
H2       0.15950    0.58247    1.04101   1.00
H2       0.10986    0.58590    0.98324   1.00
H2       0.07792    0.57747    0.94365   1.00
H2       0.06168    0.56852    0.99066   1.00
H2       0.14598    0.54720    0.92772   1.00
H2       0.14432    0.49622    0.92745   1.00
H2       0.10672    0.52277    0.90551   1.00
H2       0.14812    0.35346    0.97870   1.00
H2       0.14691    0.30879    1.00367   1.00
H2       0.13452    0.35188    1.02833   1.00
H2       0.21375    0.29880    0.97619   1.00
H2       0.21926    0.34603    0.95738   1.00
H2       0.25378    0.32695    0.99053   1.00
H2       0.31298    0.42739    1.05975   1.00
H2       0.27065    0.45277    1.04599   1.00
H2       0.27465    0.43336    1.09365   1.00
H2       0.27084    0.32676    1.06488   1.00
H2       0.31288    0.35538    1.07110   1.00
H2       0.27415    0.35959    1.10473   1.00
H2       0.12844    0.40303    1.07280   1.00
H2       0.14119    0.41864    1.12032   1.00
H2       0.15666    0.44533    1.07962   1.00
H2       0.17456    0.35964    1.14149   1.00
H2       0.15878    0.33648    1.09829   1.00
H2       0.20843    0.33485    1.11228   1.00
C4       0.68584    0.41258    0.91685   1.00
C4       0.64412    0.41330    0.91696   1.00
C3       0.70864    0.40063    0.94931   1.00
C3       0.62116    0.40558    0.95059   1.00
C3       0.70623    0.42501    0.88272   1.00
C3       0.62386    0.42210    0.88164   1.00
C2       0.77012    0.41380    0.91497   1.00
C2       0.55988    0.41620    0.91503   1.00
C3       0.74962    0.40142    0.94851   1.00
C3       0.58019    0.40662    0.94958   1.00
C3       0.74758    0.42490    0.88224   1.00
C3       0.58262    0.42464    0.88166   1.00
H1       0.69615    0.39087    0.97445   1.00
H1       0.63352    0.39921    0.97685   1.00
C5       0.68520    0.43731    0.84923   1.00
C5       0.64480    0.42866    0.84659   1.00
H1       0.76455    0.39271    0.97297   1.00
H1       0.56510    0.40045    0.97472   1.00
H1       0.76180    0.43286    0.85718   1.00
H1       0.56868    0.43341    0.85678   1.00
O3       0.70461    0.45530    0.81896   1.00
O3       0.62599    0.42951    0.81091   1.00
Si1      0.70747    0.50285    0.81758   1.00
Si1      0.61779    0.38843    0.78827   1.00
C6       0.74038    0.50610    0.77808   1.00
C6       0.66098    0.52069    0.80465   1.00
C6       0.72753    0.52331    0.86040   1.00
C6       0.63193    0.34453    0.81139   1.00
C6       0.56698    0.38868    0.78176   1.00
C6       0.63977    0.39196    0.74193   1.00
C6       0.77694    0.47868    0.78023   1.00
H2       0.72291    0.49499    0.75386   1.00
C6       0.75647    0.54664    0.76403   1.00
H2       0.64858    0.49595    0.78891   1.00
C6       0.63134    0.53026    0.83803   1.00
C6       0.65836    0.55607    0.77589   1.00
H2       0.75331    0.50512    0.86508   1.00
C6       0.74272    0.56637    0.85791   1.00
C6       0.70349    0.52215    0.89944   1.00
C6       0.67571    0.33969    0.82333   1.00
C6       0.60725    0.32852    0.84638   1.00
H2       0.62712    0.32298    0.78844   1.00
H2       0.55551    0.38457    0.81117   1.00
C6       0.54878    0.42793    0.76702   1.00
C6       0.54893    0.35553    0.75611   1.00
H2       0.61875    0.40853    0.72465   1.00
C6       0.67836    0.41595    0.73968   1.00
C6       0.64744    0.35332    0.71876   1.00
H2       0.76846    0.44816    0.78381   1.00
H2       0.79590    0.48658    0.80463   1.00
H2       0.79417    0.48028    0.75343   1.00
H2       0.76108    0.54620    0.73246   1.00
H2       0.73678    0.57066    0.77044   1.00
H2       0.78464    0.55367    0.77718   1.00
H2       0.60172    0.53287    0.82643   1.00
H2       0.63032    0.50737    0.86002   1.00
H2       0.63852    0.55782    0.85229   1.00
H2       0.67362    0.55004    0.74860   1.00
H2       0.62808    0.56233    0.76792   1.00
H2       0.67050    0.58247    0.78899   1.00
H2       0.72014    0.58590    0.84676   1.00
H2       0.75208    0.57747    0.88635   1.00
H2       0.76832    0.56852    0.83934   1.00
H2       0.68402    0.54720    0.90228   1.00
H2       0.68568    0.49622    0.90255   1.00
H2       0.72328    0.52277    0.92449   1.00
H2       0.68188    0.35346    0.85130   1.00
H2       0.68309    0.30879    0.82633   1.00
H2       0.69548    0.35188    0.80167   1.00
H2       0.61625    0.29880    0.85381   1.00
H2       0.61074    0.34603    0.87262   1.00
H2       0.57622    0.32695    0.83947   1.00
H2       0.51702    0.42739    0.77025   1.00
H2       0.55935    0.45277    0.78401   1.00
H2       0.55535    0.43336    0.73635   1.00
H2       0.55916    0.32676    0.76512   1.00
H2       0.51712    0.35538    0.75890   1.00
H2       0.55585    0.35959    0.72527   1.00
H2       0.70156    0.40303    0.75720   1.00
H2       0.68881    0.41864    0.70968   1.00
H2       0.67334    0.44533    0.75038   1.00
H2       0.65544    0.35964    0.68851   1.00
H2       0.67122    0.33648    0.73171   1.00
H2       0.62157    0.33485    0.71772   1.00
C4       0.41315    0.14416    0.91258   1.00
C4       0.41304    0.18588    0.91330   1.00
C3       0.38069    0.12136    0.90063   1.00
C3       0.37941    0.20884    0.90558   1.00
C3       0.44728    0.12377    0.92501   1.00
C3       0.44836    0.20614    0.92210   1.00
C2       0.41503    0.05988    0.91380   1.00
C2       0.41497    0.27012    0.91620   1.00
C3       0.38149    0.08038    0.90142   1.00
C3       0.38042    0.24981    0.90662   1.00
C3       0.44776    0.08242    0.92490   1.00
C3       0.44834    0.24738    0.92464   1.00
H1       0.35555    0.13385    0.89087   1.00
H1       0.35315    0.19648    0.89921   1.00
C5       0.48077    0.14480    0.93731   1.00
C5       0.48341    0.18520    0.92866   1.00
H1       0.35703    0.06545    0.89271   1.00
H1       0.35528    0.26490    0.90045   1.00
H1       0.47282    0.06820    0.93286   1.00
H1       0.47322    0.26132    0.93341   1.00
O3       0.51104    0.12539    0.95530   1.00
O3       0.51909    0.20401    0.92951   1.00
Si1      0.51242    0.12253    1.00285   1.00
Si1      0.54173    0.21221    0.88843   1.00
C6       0.55192    0.08962    1.00610   1.00
C6       0.52535    0.16902    1.02069   1.00
C6       0.46960    0.10247    1.02331   1.00
C6       0.51861    0.19807    0.84453   1.00
C6       0.54824    0.26302    0.88868   1.00
C6       0.58807    0.19023    0.89196   1.00
C6       0.54977    0.05306    0.97868   1.00
H2       0.57614    0.10709    0.99499   1.00
C6       0.56597    0.07353    1.04664   1.00
H2       0.54109    0.18142    0.99595   1.00
C6       0.49197    0.19866    1.03026   1.00
C6       0.55411    0.17164    1.05607   1.00
H2       0.46492    0.07669    1.00512   1.00
C6       0.47209    0.08728    1.06637   1.00
C6       0.43056    0.12651    1.02215   1.00
C6       0.50667    0.15429    0.83969   1.00
C6       0.48362    0.22275    0.82852   1.00
H2       0.54156    0.20288    0.82298   1.00
H2       0.51883    0.27449    0.88457   1.00
C6       0.56298    0.28122    0.92793   1.00
C6       0.57389    0.28107    0.85553   1.00
H2       0.60535    0.21125    0.90853   1.00
C6       0.59032    0.15164    0.91595   1.00
C6       0.61124    0.18256    0.85332   1.00
H2       0.54619    0.06154    0.94816   1.00
H2       0.52537    0.03410    0.98658   1.00
H2       0.57657    0.03583    0.98028   1.00
H2       0.59754    0.06892    1.04620   1.00
H2       0.55956    0.09322    1.07066   1.00
H2       0.55282    0.04536    1.05367   1.00
H2       0.50357    0.22828    1.03287   1.00
H2       0.46998    0.19968    1.00737   1.00
H2       0.47771    0.19148    1.05782   1.00
H2       0.58140    0.15638    1.05004   1.00
H2       0.56208    0.20192    1.06233   1.00
H2       0.54101    0.15950    1.08247   1.00
H2       0.48324    0.10986    1.08590   1.00
H2       0.44365    0.07792    1.07747   1.00
H2       0.49066    0.06168    1.06852   1.00
H2       0.42772    0.14598    1.04720   1.00
H2       0.42745    0.14432    0.99622   1.00
H2       0.40551    0.10672    1.02277   1.00
H2       0.47870    0.14812    0.85346   1.00
H2       0.50367    0.14691    0.80879   1.00
H2       0.52833    0.13452    0.85188   1.00
H2       0.47619    0.21375    0.79880   1.00
H2       0.45738    0.21926    0.84603   1.00
H2       0.49053    0.25378    0.82695   1.00
H2       0.55975    0.31298    0.92739   1.00
H2       0.54599    0.27065    0.95277   1.00
H2       0.59365    0.27465    0.93336   1.00
H2       0.56488    0.27084    0.82676   1.00
H2       0.57110    0.31288    0.85538   1.00
H2       0.60473    0.27415    0.85959   1.00
H2       0.57280    0.12844    0.90303   1.00
H2       0.62032    0.14119    0.91864   1.00
H2       0.57962    0.15666    0.94533   1.00
H2       0.64149    0.17456    0.85964   1.00
H2       0.59829    0.15878    0.83648   1.00
H2       0.61228    0.20843    0.83485   1.00
C4       0.41258    0.41315    0.64416   1.00
C4       0.41330    0.41304    0.68588   1.00
C3       0.40063    0.38069    0.62136   1.00
C3       0.40558    0.37941    0.70884   1.00
C3       0.42501    0.44728    0.62377   1.00
C3       0.42210    0.44836    0.70614   1.00
C2       0.41380    0.41503    0.55988   1.00
C2       0.41620    0.41497    0.77012   1.00
C3       0.40142    0.38149    0.58038   1.00
C3       0.40662    0.38042    0.74981   1.00
C3       0.42490    0.44776    0.58242   1.00
C3       0.42464    0.44834    0.74738   1.00
H1       0.39087    0.35555    0.63385   1.00
H1       0.39921    0.35315    0.69648   1.00
C5       0.43731    0.48077    0.64480   1.00
C5       0.42866    0.48341    0.68520   1.00
H1       0.39271    0.35703    0.56545   1.00
H1       0.40045    0.35528    0.76490   1.00
H1       0.43286    0.47282    0.56820   1.00
H1       0.43341    0.47322    0.76132   1.00
O3       0.45530    0.51104    0.62539   1.00
O3       0.42951    0.51909    0.70401   1.00
Si1      0.50285    0.51242    0.62253   1.00
Si1      0.38843    0.54173    0.71221   1.00
C6       0.50610    0.55192    0.58962   1.00
C6       0.52069    0.52535    0.66902   1.00
C6       0.52331    0.46960    0.60247   1.00
C6       0.34453    0.51861    0.69807   1.00
C6       0.38868    0.54824    0.76302   1.00
C6       0.39196    0.58807    0.69023   1.00
C6       0.47868    0.54977    0.55306   1.00
H2       0.49499    0.57614    0.60709   1.00
C6       0.54664    0.56597    0.57353   1.00
H2       0.49595    0.54109    0.68142   1.00
C6       0.53026    0.49197    0.69866   1.00
C6       0.55607    0.55411    0.67164   1.00
H2       0.50512    0.46492    0.57669   1.00
C6       0.56637    0.47209    0.58728   1.00
C6       0.52215    0.43056    0.62651   1.00
C6       0.33969    0.50667    0.65429   1.00
C6       0.32852    0.48362    0.72275   1.00
H2       0.32298    0.54156    0.70288   1.00
H2       0.38457    0.51883    0.77449   1.00
C6       0.42793    0.56298    0.78122   1.00
C6       0.35553    0.57389    0.78107   1.00
H2       0.40853    0.60535    0.71125   1.00
C6       0.41595    0.59032    0.65164   1.00
C6       0.35332    0.61124    0.68256   1.00
H2       0.44816    0.54619    0.56154   1.00
H2       0.48658    0.52537    0.53410   1.00
H2       0.48028    0.57657    0.53583   1.00
H2       0.54620    0.59754    0.56892   1.00
H2       0.57066    0.55956    0.59322   1.00
H2       0.55367    0.55282    0.54536   1.00
H2       0.53287    0.50357    0.72828   1.00
H2       0.50737    0.46998    0.69968   1.00
H2       0.55782    0.47771    0.69148   1.00
H2       0.55004    0.58140    0.65638   1.00
H2       0.56233    0.56208    0.70192   1.00
H2       0.58247    0.54101    0.65950   1.00
H2       0.58590    0.48324    0.60986   1.00
H2       0.57747    0.44365    0.57792   1.00
H2       0.56852    0.49066    0.56168   1.00
H2       0.54720    0.42772    0.64598   1.00
H2       0.49622    0.42745    0.64432   1.00
H2       0.52277    0.40551    0.60672   1.00
H2       0.35346    0.47870    0.64812   1.00
H2       0.30879    0.50367    0.64691   1.00
H2       0.35188    0.52833    0.63452   1.00
H2       0.29880    0.47619    0.71375   1.00
H2       0.34603    0.45738    0.71926   1.00
H2       0.32695    0.49053    0.75378   1.00
H2       0.42739    0.55975    0.81298   1.00
H2       0.45277    0.54599    0.77065   1.00
H2       0.43336    0.59365    0.77465   1.00
H2       0.32676    0.56488    0.77084   1.00
H2       0.35538    0.57110    0.81288   1.00
H2       0.35959    0.60473    0.77415   1.00
H2       0.40303    0.57280    0.62844   1.00
H2       0.41864    0.62032    0.64119   1.00
H2       0.44533    0.57962    0.65666   1.00
H2       0.35964    0.64149    0.67456   1.00
H2       0.33648    0.59829    0.65878   1.00
H2       0.33485    0.61228    0.70843   1.00
C4       0.41258    0.91685    0.68584   1.00
C4       0.41330    0.91696    0.64412   1.00
C3       0.40063    0.94931    0.70864   1.00
C3       0.40558    0.95059    0.62116   1.00
C3       0.42501    0.88272    0.70623   1.00
C3       0.42210    0.88164    0.62386   1.00
C2       0.41380    0.91497    0.77012   1.00
C2       0.41620    0.91503    0.55988   1.00
C3       0.40142    0.94851    0.74962   1.00
C3       0.40662    0.94958    0.58019   1.00
C3       0.42490    0.88224    0.74758   1.00
C3       0.42464    0.88166    0.58262   1.00
H1       0.39087    0.97445    0.69615   1.00
H1       0.39921    0.97685    0.63352   1.00
C5       0.43731    0.84923    0.68520   1.00
C5       0.42866    0.84659    0.64480   1.00
H1       0.39271    0.97297    0.76455   1.00
H1       0.40045    0.97472    0.56510   1.00
H1       0.43286    0.85718    0.76180   1.00
H1       0.43341    0.85678    0.56868   1.00
O3       0.45530    0.81896    0.70461   1.00
O3       0.42951    0.81091    0.62599   1.00
Si1      0.50285    0.81758    0.70747   1.00
Si1      0.38843    0.78827    0.61779   1.00
C6       0.50610    0.77808    0.74038   1.00
C6       0.52069    0.80465    0.66098   1.00
C6       0.52331    0.86040    0.72753   1.00
C6       0.34453    0.81139    0.63193   1.00
C6       0.38868    0.78176    0.56698   1.00
C6       0.39196    0.74193    0.63977   1.00
C6       0.47868    0.78023    0.77694   1.00
H2       0.49499    0.75386    0.72291   1.00
C6       0.54664    0.76403    0.75647   1.00
H2       0.49595    0.78891    0.64858   1.00
C6       0.53026    0.83803    0.63134   1.00
C6       0.55607    0.77589    0.65836   1.00
H2       0.50512    0.86508    0.75331   1.00
C6       0.56637    0.85791    0.74272   1.00
C6       0.52215    0.89944    0.70349   1.00
C6       0.33969    0.82333    0.67571   1.00
C6       0.32852    0.84638    0.60725   1.00
H2       0.32298    0.78844    0.62712   1.00
H2       0.38457    0.81117    0.55551   1.00
C6       0.42793    0.76702    0.54878   1.00
C6       0.35553    0.75611    0.54893   1.00
H2       0.40853    0.72465    0.61875   1.00
C6       0.41595    0.73968    0.67836   1.00
C6       0.35332    0.71876    0.64744   1.00
H2       0.44816    0.78381    0.76846   1.00
H2       0.48658    0.80463    0.79590   1.00
H2       0.48028    0.75343    0.79417   1.00
H2       0.54620    0.73246    0.76108   1.00
H2       0.57066    0.77044    0.73678   1.00
H2       0.55367    0.77718    0.78464   1.00
H2       0.53287    0.82643    0.60172   1.00
H2       0.50737    0.86002    0.63032   1.00
H2       0.55782    0.85229    0.63852   1.00
H2       0.55004    0.74860    0.67362   1.00
H2       0.56233    0.76792    0.62808   1.00
H2       0.58247    0.78899    0.67050   1.00
H2       0.58590    0.84676    0.72014   1.00
H2       0.57747    0.88635    0.75208   1.00
H2       0.56852    0.83934    0.76832   1.00
H2       0.54720    0.90228    0.68402   1.00
H2       0.49622    0.90255    0.68568   1.00
H2       0.52277    0.92449    0.72328   1.00
H2       0.35346    0.85130    0.68188   1.00
H2       0.30879    0.82633    0.68309   1.00
H2       0.35188    0.80167    0.69548   1.00
H2       0.29880    0.85381    0.61625   1.00
H2       0.34603    0.87262    0.61074   1.00
H2       0.32695    0.83947    0.57622   1.00
H2       0.42739    0.77025    0.51702   1.00
H2       0.45277    0.78401    0.55935   1.00
H2       0.43336    0.73635    0.55535   1.00
H2       0.32676    0.76512    0.55916   1.00
H2       0.35538    0.75890    0.51712   1.00
H2       0.35959    0.72527    0.55585   1.00
H2       0.40303    0.75720    0.70156   1.00
H2       0.41864    0.70968    0.68881   1.00
H2       0.44533    0.75038    0.67334   1.00
H2       0.35964    0.68851    0.65544   1.00
H2       0.33648    0.73171    0.67122   1.00
H2       0.33485    0.71772    0.62157   1.00
C4       0.41685    1.18584    0.41258   1.00
C4       0.41696    1.14412    0.41330   1.00
C3       0.44931    1.20864    0.40063   1.00
C3       0.45059    1.12116    0.40558   1.00
C3       0.38272    1.20623    0.42501   1.00
C3       0.38164    1.12386    0.42210   1.00
C2       0.41497    1.27012    0.41380   1.00
C2       0.41503    1.05988    0.41620   1.00
C3       0.44851    1.24962    0.40142   1.00
C3       0.44958    1.08019    0.40662   1.00
C3       0.38224    1.24758    0.42490   1.00
C3       0.38166    1.08262    0.42464   1.00
H1       0.47445    1.19615    0.39087   1.00
H1       0.47685    1.13352    0.39921   1.00
C5       0.34923    1.18520    0.43731   1.00
C5       0.34659    1.14480    0.42866   1.00
H1       0.47297    1.26455    0.39271   1.00
H1       0.47472    1.06510    0.40045   1.00
H1       0.35718    1.26180    0.43286   1.00
H1       0.35678    1.06868    0.43341   1.00
O3       0.31896    1.20461    0.45530   1.00
O3       0.31091    1.12599    0.42951   1.00
Si1      0.31758    1.20747    0.50285   1.00
Si1      0.28827    1.11779    0.38843   1.00
C6       0.27808    1.24038    0.50610   1.00
C6       0.30465    1.16098    0.52069   1.00
C6       0.36040    1.22753    0.52331   1.00
C6       0.31139    1.13193    0.34453   1.00
C6       0.28176    1.06698    0.38868   1.00
C6       0.24193    1.13977    0.39196   1.00
C6       0.28023    1.27694    0.47868   1.00
H2       0.25386    1.22291    0.49499   1.00
C6       0.26403    1.25647    0.54664   1.00
H2       0.28891    1.14858    0.49595   1.00
C6       0.33803    1.13134    0.53026   1.00
C6       0.27589    1.15836    0.55607   1.00
H2       0.36508    1.25331    0.50512   1.00
C6       0.35791    1.24272    0.56637   1.00
C6       0.39944    1.20349    0.52215   1.00
C6       0.32333    1.17571    0.33969   1.00
C6       0.34638    1.10725    0.32852   1.00
H2       0.28844    1.12712    0.32298   1.00
H2       0.31117    1.05551    0.38457   1.00
C6       0.26702    1.04878    0.42793   1.00
C6       0.25611    1.04893    0.35553   1.00
H2       0.22465    1.11875    0.40853   1.00
C6       0.23968    1.17836    0.41595   1.00
C6       0.21876    1.14744    0.35332   1.00
H2       0.28381    1.26846    0.44816   1.00
H2       0.30463    1.29590    0.48658   1.00
H2       0.25343    1.29417    0.48028   1.00
H2       0.23246    1.26108    0.54620   1.00
H2       0.27044    1.23678    0.57066   1.00
H2       0.27718    1.28464    0.55367   1.00
H2       0.32643    1.10172    0.53287   1.00
H2       0.36002    1.13032    0.50737   1.00
H2       0.35229    1.13852    0.55782   1.00
H2       0.24860    1.17362    0.55004   1.00
H2       0.26792    1.12808    0.56233   1.00
H2       0.28899    1.17050    0.58247   1.00
H2       0.34676    1.22014    0.58590   1.00
H2       0.38635    1.25208    0.57747   1.00
H2       0.33934    1.26832    0.56852   1.00
H2       0.40228    1.18402    0.54720   1.00
H2       0.40255    1.18568    0.49622   1.00
H2       0.42449    1.22328    0.52277   1.00
H2       0.35130    1.18188    0.35346   1.00
H2       0.32633    1.18309    0.30879   1.00
H2       0.30167    1.19548    0.35188   1.00
H2       0.35381    1.11625    0.29880   1.00
H2       0.37262    1.11074    0.34603   1.00
H2       0.33947    1.07622    0.32695   1.00
H2       0.27025    1.01702    0.42739   1.00
H2       0.28401    1.05935    0.45277   1.00
H2       0.23635    1.05535    0.43336   1.00
H2       0.26512    1.05916    0.32676   1.00
H2       0.25890    1.01712    0.35538   1.00
H2       0.22527    1.05585    0.35959   1.00
H2       0.25720    1.20156    0.40303   1.00
H2       0.20968    1.18881    0.41864   1.00
H2       0.25038    1.17334    0.44533   1.00
H2       0.18851    1.15544    0.35964   1.00
H2       0.23171    1.17122    0.33648   1.00
H2       0.21772    1.12157    0.33485   1.00
C4       0.14416    0.91258    0.41315   1.00
C4       0.18588    0.91330    0.41304   1.00
C3       0.12136    0.90063    0.38069   1.00
C3       0.20884    0.90558    0.37941   1.00
C3       0.12377    0.92501    0.44728   1.00
C3       0.20614    0.92210    0.44836   1.00
C2       0.05988    0.91380    0.41503   1.00
C2       0.27012    0.91620    0.41497   1.00
C3       0.08038    0.90142    0.38149   1.00
C3       0.24981    0.90662    0.38042   1.00
C3       0.08242    0.92490    0.44776   1.00
C3       0.24738    0.92464    0.44834   1.00
H1       0.13385    0.89087    0.35555   1.00
H1       0.19648    0.89921    0.35315   1.00
C5       0.14480    0.93731    0.48077   1.00
C5       0.18520    0.92866    0.48341   1.00
H1       0.06545    0.89271    0.35703   1.00
H1       0.26490    0.90045    0.35528   1.00
H1       0.06820    0.93286    0.47282   1.00
H1       0.26132    0.93341    0.47322   1.00
O3       0.12539    0.95530    0.51104   1.00
O3       0.20401    0.92951    0.51909   1.00
Si1      0.12253    1.00285    0.51242   1.00
Si1      0.21221    0.88843    0.54173   1.00
C6       0.08962    1.00610    0.55192   1.00
C6       0.16902    1.02069    0.52535   1.00
C6       0.10247    1.02331    0.46960   1.00
C6       0.19807    0.84453    0.51861   1.00
C6       0.26302    0.88868    0.54824   1.00
C6       0.19023    0.89196    0.58807   1.00
C6       0.05306    0.97868    0.54977   1.00
H2       0.10709    0.99499    0.57614   1.00
C6       0.07353    1.04664    0.56597   1.00
H2       0.18142    0.99595    0.54109   1.00
C6       0.19866    1.03026    0.49197   1.00
C6       0.17164    1.05607    0.55411   1.00
H2       0.07669    1.00512    0.46492   1.00
C6       0.08728    1.06637    0.47209   1.00
C6       0.12651    1.02215    0.43056   1.00
C6       0.15429    0.83969    0.50667   1.00
C6       0.22275    0.82852    0.48362   1.00
H2       0.20288    0.82298    0.54156   1.00
H2       0.27449    0.88457    0.51883   1.00
C6       0.28122    0.92793    0.56298   1.00
C6       0.28107    0.85553    0.57389   1.00
H2       0.21125    0.90853    0.60535   1.00
C6       0.15164    0.91595    0.59032   1.00
C6       0.18256    0.85332    0.61124   1.00
H2       0.06154    0.94816    0.54619   1.00
H2       0.03410    0.98658    0.52537   1.00
H2       0.03583    0.98028    0.57657   1.00
H2       0.06892    1.04620    0.59754   1.00
H2       0.09322    1.07066    0.55956   1.00
H2       0.04536    1.05367    0.55282   1.00
H2       0.22828    1.03287    0.50357   1.00
H2       0.19968    1.00737    0.46998   1.00
H2       0.19148    1.05782    0.47771   1.00
H2       0.15638    1.05004    0.58140   1.00
H2       0.20192    1.06233    0.56208   1.00
H2       0.15950    1.08247    0.54101   1.00
H2       0.10986    1.08590    0.48324   1.00
H2       0.07792    1.07747    0.44365   1.00
H2       0.06168    1.06852    0.49066   1.00
H2       0.14598    1.04720    0.42772   1.00
H2       0.14432    0.99622    0.42745   1.00
H2       0.10672    1.02277    0.40551   1.00
H2       0.14812    0.85346    0.47870   1.00
H2       0.14691    0.80879    0.50367   1.00
H2       0.13452    0.85188    0.52833   1.00
H2       0.21375    0.79880    0.47619   1.00
H2       0.21926    0.84603    0.45738   1.00
H2       0.25378    0.82695    0.49053   1.00
H2       0.31298    0.92739    0.55975   1.00
H2       0.27065    0.95277    0.54599   1.00
H2       0.27465    0.93336    0.59365   1.00
H2       0.27084    0.82676    0.56488   1.00
H2       0.31288    0.85538    0.57110   1.00
H2       0.27415    0.85959    0.60473   1.00
H2       0.12844    0.90303    0.57280   1.00
H2       0.14119    0.91864    0.62032   1.00
H2       0.15666    0.94533    0.57962   1.00
H2       0.17456    0.85964    0.64149   1.00
H2       0.15878    0.83648    0.59829   1.00
H2       0.20843    0.83485    0.61228   1.00
C4       0.68584    0.91258    0.41685   1.00
C4       0.64412    0.91330    0.41696   1.00
C3       0.70864    0.90063    0.44931   1.00
C3       0.62116    0.90558    0.45059   1.00
C3       0.70623    0.92501    0.38272   1.00
C3       0.62386    0.92210    0.38164   1.00
C2       0.77012    0.91380    0.41497   1.00
C2       0.55988    0.91620    0.41503   1.00
C3       0.74962    0.90142    0.44851   1.00
C3       0.58019    0.90662    0.44958   1.00
C3       0.74758    0.92490    0.38224   1.00
C3       0.58262    0.92464    0.38166   1.00
H1       0.69615    0.89087    0.47445   1.00
H1       0.63352    0.89921    0.47685   1.00
C5       0.68520    0.93731    0.34923   1.00
C5       0.64480    0.92866    0.34659   1.00
H1       0.76455    0.89271    0.47297   1.00
H1       0.56510    0.90045    0.47472   1.00
H1       0.76180    0.93286    0.35718   1.00
H1       0.56868    0.93341    0.35678   1.00
O3       0.70461    0.95530    0.31896   1.00
O3       0.62599    0.92951    0.31091   1.00
Si1      0.70747    1.00285    0.31758   1.00
Si1      0.61779    0.88843    0.28827   1.00
C6       0.74038    1.00610    0.27808   1.00
C6       0.66098    1.02069    0.30465   1.00
C6       0.72753    1.02331    0.36040   1.00
C6       0.63193    0.84453    0.31139   1.00
C6       0.56698    0.88868    0.28176   1.00
C6       0.63977    0.89196    0.24193   1.00
C6       0.77694    0.97868    0.28023   1.00
H2       0.72291    0.99499    0.25386   1.00
C6       0.75647    1.04664    0.26403   1.00
H2       0.64858    0.99595    0.28891   1.00
C6       0.63134    1.03026    0.33803   1.00
C6       0.65836    1.05607    0.27589   1.00
H2       0.75331    1.00512    0.36508   1.00
C6       0.74272    1.06637    0.35791   1.00
C6       0.70349    1.02215    0.39944   1.00
C6       0.67571    0.83969    0.32333   1.00
C6       0.60725    0.82852    0.34638   1.00
H2       0.62712    0.82298    0.28844   1.00
H2       0.55551    0.88457    0.31117   1.00
C6       0.54878    0.92793    0.26702   1.00
C6       0.54893    0.85553    0.25611   1.00
H2       0.61875    0.90853    0.22465   1.00
C6       0.67836    0.91595    0.23968   1.00
C6       0.64744    0.85332    0.21876   1.00
H2       0.76846    0.94816    0.28381   1.00
H2       0.79590    0.98658    0.30463   1.00
H2       0.79417    0.98028    0.25343   1.00
H2       0.76108    1.04620    0.23246   1.00
H2       0.73678    1.07066    0.27044   1.00
H2       0.78464    1.05367    0.27718   1.00
H2       0.60172    1.03287    0.32643   1.00
H2       0.63032    1.00737    0.36002   1.00
H2       0.63852    1.05782    0.35229   1.00
H2       0.67362    1.05004    0.24860   1.00
H2       0.62808    1.06233    0.26792   1.00
H2       0.67050    1.08247    0.28899   1.00
H2       0.72014    1.08590    0.34676   1.00
H2       0.75208    1.07747    0.38635   1.00
H2       0.76832    1.06852    0.33934   1.00
H2       0.68402    1.04720    0.40228   1.00
H2       0.68568    0.99622    0.40255   1.00
H2       0.72328    1.02277    0.42449   1.00
H2       0.68188    0.85346    0.35130   1.00
H2       0.68309    0.80879    0.32633   1.00
H2       0.69548    0.85188    0.30167   1.00
H2       0.61625    0.79880    0.35381   1.00
H2       0.61074    0.84603    0.37262   1.00
H2       0.57622    0.82695    0.33947   1.00
H2       0.51702    0.92739    0.27025   1.00
H2       0.55935    0.95277    0.28401   1.00
H2       0.55535    0.93336    0.23635   1.00
H2       0.55916    0.82676    0.26512   1.00
H2       0.51712    0.85538    0.25890   1.00
H2       0.55585    0.85959    0.22527   1.00
H2       0.70156    0.90303    0.25720   1.00
H2       0.68881    0.91864    0.20968   1.00
H2       0.67334    0.94533    0.25038   1.00
H2       0.65544    0.85964    0.18851   1.00
H2       0.67122    0.83648    0.23171   1.00
H2       0.62157    0.83485    0.21772   1.00
C4       0.41315    0.64416    0.41258   1.00
C4       0.41304    0.68588    0.41330   1.00
C3       0.38069    0.62136    0.40063   1.00
C3       0.37941    0.70884    0.40558   1.00
C3       0.44728    0.62377    0.42501   1.00
C3       0.44836    0.70614    0.42210   1.00
C2       0.41503    0.55988    0.41380   1.00
C2       0.41497    0.77012    0.41620   1.00
C3       0.38149    0.58038    0.40142   1.00
C3       0.38042    0.74981    0.40662   1.00
C3       0.44776    0.58242    0.42490   1.00
C3       0.44834    0.74738    0.42464   1.00
H1       0.35555    0.63385    0.39087   1.00
H1       0.35315    0.69648    0.39921   1.00
C5       0.48077    0.64480    0.43731   1.00
C5       0.48341    0.68520    0.42866   1.00
H1       0.35703    0.56545    0.39271   1.00
H1       0.35528    0.76490    0.40045   1.00
H1       0.47282    0.56820    0.43286   1.00
H1       0.47322    0.76132    0.43341   1.00
O3       0.51104    0.62539    0.45530   1.00
O3       0.51909    0.70401    0.42951   1.00
Si1      0.51242    0.62253    0.50285   1.00
Si1      0.54173    0.71221    0.38843   1.00
C6       0.55192    0.58962    0.50610   1.00
C6       0.52535    0.66902    0.52069   1.00
C6       0.46960    0.60247    0.52331   1.00
C6       0.51861    0.69807    0.34453   1.00
C6       0.54824    0.76302    0.38868   1.00
C6       0.58807    0.69023    0.39196   1.00
C6       0.54977    0.55306    0.47868   1.00
H2       0.57614    0.60709    0.49499   1.00
C6       0.56597    0.57353    0.54664   1.00
H2       0.54109    0.68142    0.49595   1.00
C6       0.49197    0.69866    0.53026   1.00
C6       0.55411    0.67164    0.55607   1.00
H2       0.46492    0.57669    0.50512   1.00
C6       0.47209    0.58728    0.56637   1.00
C6       0.43056    0.62651    0.52215   1.00
C6       0.50667    0.65429    0.33969   1.00
C6       0.48362    0.72275    0.32852   1.00
H2       0.54156    0.70288    0.32298   1.00
H2       0.51883    0.77449    0.38457   1.00
C6       0.56298    0.78122    0.42793   1.00
C6       0.57389    0.78107    0.35553   1.00
H2       0.60535    0.71125    0.40853   1.00
C6       0.59032    0.65164    0.41595   1.00
C6       0.61124    0.68256    0.35332   1.00
H2       0.54619    0.56154    0.44816   1.00
H2       0.52537    0.53410    0.48658   1.00
H2       0.57657    0.53583    0.48028   1.00
H2       0.59754    0.56892    0.54620   1.00
H2       0.55956    0.59322    0.57066   1.00
H2       0.55282    0.54536    0.55367   1.00
H2       0.50357    0.72828    0.53287   1.00
H2       0.46998    0.69968    0.50737   1.00
H2       0.47771    0.69148    0.55782   1.00
H2       0.58140    0.65638    0.55004   1.00
H2       0.56208    0.70192    0.56233   1.00
H2       0.54101    0.65950    0.58247   1.00
H2       0.48324    0.60986    0.58590   1.00
H2       0.44365    0.57792    0.57747   1.00
H2       0.49066    0.56168    0.56852   1.00
H2       0.42772    0.64598    0.54720   1.00
H2       0.42745    0.64432    0.49622   1.00
H2       0.40551    0.60672    0.52277   1.00
H2       0.47870    0.64812    0.35346   1.00
H2       0.50367    0.64691    0.30879   1.00
H2       0.52833    0.63452    0.35188   1.00
H2       0.47619    0.71375    0.29880   1.00
H2       0.45738    0.71926    0.34603   1.00
H2       0.49053    0.75378    0.32695   1.00
H2       0.55975    0.81298    0.42739   1.00
H2       0.54599    0.77065    0.45277   1.00
H2       0.59365    0.77465    0.43336   1.00
H2       0.56488    0.77084    0.32676   1.00
H2       0.57110    0.81288    0.35538   1.00
H2       0.60473    0.77415    0.35959   1.00
H2       0.57280    0.62844    0.40303   1.00
H2       0.62032    0.64119    0.41864   1.00
H2       0.57962    0.65666    0.44533   1.00
H2       0.64149    0.67456    0.35964   1.00
H2       0.59829    0.65878    0.33648   1.00
H2       0.61228    0.70843    0.33485   1.00
C4       0.41258    0.91315    0.14416   1.00
C4       0.41330    0.91304    0.18588   1.00
C3       0.40063    0.88069    0.12136   1.00
C3       0.40558    0.87941    0.20884   1.00
C3       0.42501    0.94728    0.12377   1.00
C3       0.42210    0.94836    0.20614   1.00
C2       0.41380    0.91503    0.05988   1.00
C2       0.41620    0.91497    0.27012   1.00
C3       0.40142    0.88149    0.08038   1.00
C3       0.40662    0.88042    0.24981   1.00
C3       0.42490    0.94776    0.08242   1.00
C3       0.42464    0.94834    0.24738   1.00
H1       0.39087    0.85555    0.13385   1.00
H1       0.39921    0.85315    0.19648   1.00
C5       0.43731    0.98077    0.14480   1.00
C5       0.42866    0.98341    0.18520   1.00
H1       0.39271    0.85703    0.06545   1.00
H1       0.40045    0.85528    0.26490   1.00
H1       0.43286    0.97282    0.06820   1.00
H1       0.43341    0.97322    0.26132   1.00
O3       0.45530    1.01104    0.12539   1.00
O3       0.42951    1.01909    0.20401   1.00
Si1      0.50285    1.01242    0.12253   1.00
Si1      0.38843    1.04173    0.21221   1.00
C6       0.50610    1.05192    0.08962   1.00
C6       0.52069    1.02535    0.16902   1.00
C6       0.52331    0.96960    0.10247   1.00
C6       0.34453    1.01861    0.19807   1.00
C6       0.38868    1.04824    0.26302   1.00
C6       0.39196    1.08807    0.19023   1.00
C6       0.47868    1.04977    0.05306   1.00
H2       0.49499    1.07614    0.10709   1.00
C6       0.54664    1.06597    0.07353   1.00
H2       0.49595    1.04109    0.18142   1.00
C6       0.53026    0.99197    0.19866   1.00
C6       0.55607    1.05411    0.17164   1.00
H2       0.50512    0.96492    0.07669   1.00
C6       0.56637    0.97209    0.08728   1.00
C6       0.52215    0.93056    0.12651   1.00
C6       0.33969    1.00667    0.15429   1.00
C6       0.32852    0.98362    0.22275   1.00
H2       0.32298    1.04156    0.20288   1.00
H2       0.38457    1.01883    0.27449   1.00
C6       0.42793    1.06298    0.28122   1.00
C6       0.35553    1.07389    0.28107   1.00
H2       0.40853    1.10535    0.21125   1.00
C6       0.41595    1.09032    0.15164   1.00
C6       0.35332    1.11124    0.18256   1.00
H2       0.44816    1.04619    0.06154   1.00
H2       0.48658    1.02537    0.03410   1.00
H2       0.48028    1.07657    0.03583   1.00
H2       0.54620    1.09754    0.06892   1.00
H2       0.57066    1.05956    0.09322   1.00
H2       0.55367    1.05282    0.04536   1.00
H2       0.53287    1.00357    0.22828   1.00
H2       0.50737    0.96998    0.19968   1.00
H2       0.55782    0.97771    0.19148   1.00
H2       0.55004    1.08140    0.15638   1.00
H2       0.56233    1.06208    0.20192   1.00
H2       0.58247    1.04101    0.15950   1.00
H2       0.58590    0.98324    0.10986   1.00
H2       0.57747    0.94365    0.07792   1.00
H2       0.56852    0.99066    0.06168   1.00
H2       0.54720    0.92772    0.14598   1.00
H2       0.49622    0.92745    0.14432   1.00
H2       0.52277    0.90551    0.10672   1.00
H2       0.35346    0.97870    0.14812   1.00
H2       0.30879    1.00367    0.14691   1.00
H2       0.35188    1.02833    0.13452   1.00
H2       0.29880    0.97619    0.21375   1.00
H2       0.34603    0.95738    0.21926   1.00
H2       0.32695    0.99053    0.25378   1.00
H2       0.42739    1.05975    0.31298   1.00
H2       0.45277    1.04599    0.27065   1.00
H2       0.43336    1.09365    0.27465   1.00
H2       0.32676    1.06488    0.27084   1.00
H2       0.35538    1.07110    0.31288   1.00
H2       0.35959    1.10473    0.27415   1.00
H2       0.40303    1.07280    0.12844   1.00
H2       0.41864    1.12032    0.14119   1.00
H2       0.44533    1.07962    0.15666   1.00
H2       0.35964    1.14149    0.17456   1.00
H2       0.33648    1.09829    0.15878   1.00
H2       0.33485    1.11228    0.20843   1.00
C4       0.91258    0.41685    0.68584   1.00
C4       0.91330    0.41696    0.64412   1.00
C3       0.90063    0.44931    0.70864   1.00
C3       0.90558    0.45059    0.62116   1.00
C3       0.92501    0.38272    0.70623   1.00
C3       0.92210    0.38164    0.62386   1.00
C2       0.91380    0.41497    0.77012   1.00
C2       0.91620    0.41503    0.55988   1.00
C3       0.90142    0.44851    0.74962   1.00
C3       0.90662    0.44958    0.58019   1.00
C3       0.92490    0.38224    0.74758   1.00
C3       0.92464    0.38166    0.58262   1.00
H1       0.89087    0.47445    0.69615   1.00
H1       0.89921    0.47685    0.63352   1.00
C5       0.93731    0.34923    0.68520   1.00
C5       0.92866    0.34659    0.64480   1.00
H1       0.89271    0.47297    0.76455   1.00
H1       0.90045    0.47472    0.56510   1.00
H1       0.93286    0.35718    0.76180   1.00
H1       0.93341    0.35678    0.56868   1.00
O3       0.95530    0.31896    0.70461   1.00
O3       0.92951    0.31091    0.62599   1.00
Si1      1.00285    0.31758    0.70747   1.00
Si1      0.88843    0.28827    0.61779   1.00
C6       1.00610    0.27808    0.74038   1.00
C6       1.02069    0.30465    0.66098   1.00
C6       1.02331    0.36040    0.72753   1.00
C6       0.84453    0.31139    0.63193   1.00
C6       0.88868    0.28176    0.56698   1.00
C6       0.89196    0.24193    0.63977   1.00
C6       0.97868    0.28023    0.77694   1.00
H2       0.99499    0.25386    0.72291   1.00
C6       1.04664    0.26403    0.75647   1.00
H2       0.99595    0.28891    0.64858   1.00
C6       1.03026    0.33803    0.63134   1.00
C6       1.05607    0.27589    0.65836   1.00
H2       1.00512    0.36508    0.75331   1.00
C6       1.06637    0.35791    0.74272   1.00
C6       1.02215    0.39944    0.70349   1.00
C6       0.83969    0.32333    0.67571   1.00
C6       0.82852    0.34638    0.60725   1.00
H2       0.82298    0.28844    0.62712   1.00
H2       0.88457    0.31117    0.55551   1.00
C6       0.92793    0.26702    0.54878   1.00
C6       0.85553    0.25611    0.54893   1.00
H2       0.90853    0.22465    0.61875   1.00
C6       0.91595    0.23968    0.67836   1.00
C6       0.85332    0.21876    0.64744   1.00
H2       0.94816    0.28381    0.76846   1.00
H2       0.98658    0.30463    0.79590   1.00
H2       0.98028    0.25343    0.79417   1.00
H2       1.04620    0.23246    0.76108   1.00
H2       1.07066    0.27044    0.73678   1.00
H2       1.05367    0.27718    0.78464   1.00
H2       1.03287    0.32643    0.60172   1.00
H2       1.00737    0.36002    0.63032   1.00
H2       1.05782    0.35229    0.63852   1.00
H2       1.05004    0.24860    0.67362   1.00
H2       1.06233    0.26792    0.62808   1.00
H2       1.08247    0.28899    0.67050   1.00
H2       1.08590    0.34676    0.72014   1.00
H2       1.07747    0.38635    0.75208   1.00
H2       1.06852    0.33934    0.76832   1.00
H2       1.04720    0.40228    0.68402   1.00
H2       0.99622    0.40255    0.68568   1.00
H2       1.02277    0.42449    0.72328   1.00
H2       0.85346    0.35130    0.68188   1.00
H2       0.80879    0.32633    0.68309   1.00
H2       0.85188    0.30167    0.69548   1.00
H2       0.79880    0.35381    0.61625   1.00
H2       0.84603    0.37262    0.61074   1.00
H2       0.82695    0.33947    0.57622   1.00
H2       0.92739    0.27025    0.51702   1.00
H2       0.95277    0.28401    0.55935   1.00
H2       0.93336    0.23635    0.55535   1.00
H2       0.82676    0.26512    0.55916   1.00
H2       0.85538    0.25890    0.51712   1.00
H2       0.85959    0.22527    0.55585   1.00
H2       0.90303    0.25720    0.70156   1.00
H2       0.91864    0.20968    0.68881   1.00
H2       0.94533    0.25038    0.67334   1.00
H2       0.85964    0.18851    0.65544   1.00
H2       0.83648    0.23171    0.67122   1.00
H2       0.83485    0.21772    0.62157   1.00
C4       0.91685    0.68584    0.41258   1.00
C4       0.91696    0.64412    0.41330   1.00
C3       0.94931    0.70864    0.40063   1.00
C3       0.95059    0.62116    0.40558   1.00
C3       0.88272    0.70623    0.42501   1.00
C3       0.88164    0.62386    0.42210   1.00
C2       0.91497    0.77012    0.41380   1.00
C2       0.91503    0.55988    0.41620   1.00
C3       0.94851    0.74962    0.40142   1.00
C3       0.94958    0.58019    0.40662   1.00
C3       0.88224    0.74758    0.42490   1.00
C3       0.88166    0.58262    0.42464   1.00
H1       0.97445    0.69615    0.39087   1.00
H1       0.97685    0.63352    0.39921   1.00
C5       0.84923    0.68520    0.43731   1.00
C5       0.84659    0.64480    0.42866   1.00
H1       0.97297    0.76455    0.39271   1.00
H1       0.97472    0.56510    0.40045   1.00
H1       0.85718    0.76180    0.43286   1.00
H1       0.85678    0.56868    0.43341   1.00
O3       0.81896    0.70461    0.45530   1.00
O3       0.81091    0.62599    0.42951   1.00
Si1      0.81758    0.70747    0.50285   1.00
Si1      0.78827    0.61779    0.38843   1.00
C6       0.77808    0.74038    0.50610   1.00
C6       0.80465    0.66098    0.52069   1.00
C6       0.86040    0.72753    0.52331   1.00
C6       0.81139    0.63193    0.34453   1.00
C6       0.78176    0.56698    0.38868   1.00
C6       0.74193    0.63977    0.39196   1.00
C6       0.78023    0.77694    0.47868   1.00
H2       0.75386    0.72291    0.49499   1.00
C6       0.76403    0.75647    0.54664   1.00
H2       0.78891    0.64858    0.49595   1.00
C6       0.83803    0.63134    0.53026   1.00
C6       0.77589    0.65836    0.55607   1.00
H2       0.86508    0.75331    0.50512   1.00
C6       0.85791    0.74272    0.56637   1.00
C6       0.89944    0.70349    0.52215   1.00
C6       0.82333    0.67571    0.33969   1.00
C6       0.84638    0.60725    0.32852   1.00
H2       0.78844    0.62712    0.32298   1.00
H2       0.81117    0.55551    0.38457   1.00
C6       0.76702    0.54878    0.42793   1.00
C6       0.75611    0.54893    0.35553   1.00
H2       0.72465    0.61875    0.40853   1.00
C6       0.73968    0.67836    0.41595   1.00
C6       0.71876    0.64744    0.35332   1.00
H2       0.78381    0.76846    0.44816   1.00
H2       0.80463    0.79590    0.48658   1.00
H2       0.75343    0.79417    0.48028   1.00
H2       0.73246    0.76108    0.54620   1.00
H2       0.77044    0.73678    0.57066   1.00
H2       0.77718    0.78464    0.55367   1.00
H2       0.82643    0.60172    0.53287   1.00
H2       0.86002    0.63032    0.50737   1.00
H2       0.85229    0.63852    0.55782   1.00
H2       0.74860    0.67362    0.55004   1.00
H2       0.76792    0.62808    0.56233   1.00
H2       0.78899    0.67050    0.58247   1.00
H2       0.84676    0.72014    0.58590   1.00
H2       0.88635    0.75208    0.57747   1.00
H2       0.83934    0.76832    0.56852   1.00
H2       0.90228    0.68402    0.54720   1.00
H2       0.90255    0.68568    0.49622   1.00
H2       0.92449    0.72328    0.52277   1.00
H2       0.85130    0.68188    0.35346   1.00
H2       0.82633    0.68309    0.30879   1.00
H2       0.80167    0.69548    0.35188   1.00
H2       0.85381    0.61625    0.29880   1.00
H2       0.87262    0.61074    0.34603   1.00
H2       0.83947    0.57622    0.32695   1.00
H2       0.77025    0.51702    0.42739   1.00
H2       0.78401    0.55935    0.45277   1.00
H2       0.73635    0.55535    0.43336   1.00
H2       0.76512    0.55916    0.32676   1.00
H2       0.75890    0.51712    0.35538   1.00
H2       0.72527    0.55585    0.35959   1.00
H2       0.75720    0.70156    0.40303   1.00
H2       0.70968    0.68881    0.41864   1.00
H2       0.75038    0.67334    0.44533   1.00
H2       0.68851    0.65544    0.35964   1.00
H2       0.73171    0.67122    0.33648   1.00
H2       0.71772    0.62157    0.33485   1.00
C4       0.64416    0.41258    0.41315   1.00
C4       0.68588    0.41330    0.41304   1.00
C3       0.62136    0.40063    0.38069   1.00
C3       0.70884    0.40558    0.37941   1.00
C3       0.62377    0.42501    0.44728   1.00
C3       0.70614    0.42210    0.44836   1.00
C2       0.55988    0.41380    0.41503   1.00
C2       0.77012    0.41620    0.41497   1.00
C3       0.58038    0.40142    0.38149   1.00
C3       0.74981    0.40662    0.38042   1.00
C3       0.58242    0.42490    0.44776   1.00
C3       0.74738    0.42464    0.44834   1.00
H1       0.63385    0.39087    0.35555   1.00
H1       0.69648    0.39921    0.35315   1.00
C5       0.64480    0.43731    0.48077   1.00
C5       0.68520    0.42866    0.48341   1.00
H1       0.56545    0.39271    0.35703   1.00
H1       0.76490    0.40045    0.35528   1.00
H1       0.56820    0.43286    0.47282   1.00
H1       0.76132    0.43341    0.47322   1.00
O3       0.62539    0.45530    0.51104   1.00
O3       0.70401    0.42951    0.51909   1.00
Si1      0.62253    0.50285    0.51242   1.00
Si1      0.71221    0.38843    0.54173   1.00
C6       0.58962    0.50610    0.55192   1.00
C6       0.66902    0.52069    0.52535   1.00
C6       0.60247    0.52331    0.46960   1.00
C6       0.69807    0.34453    0.51861   1.00
C6       0.76302    0.38868    0.54824   1.00
C6       0.69023    0.39196    0.58807   1.00
C6       0.55306    0.47868    0.54977   1.00
H2       0.60709    0.49499    0.57614   1.00
C6       0.57353    0.54664    0.56597   1.00
H2       0.68142    0.49595    0.54109   1.00
C6       0.69866    0.53026    0.49197   1.00
C6       0.67164    0.55607    0.55411   1.00
H2       0.57669    0.50512    0.46492   1.00
C6       0.58728    0.56637    0.47209   1.00
C6       0.62651    0.52215    0.43056   1.00
C6       0.65429    0.33969    0.50667   1.00
C6       0.72275    0.32852    0.48362   1.00
H2       0.70288    0.32298    0.54156   1.00
H2       0.77449    0.38457    0.51883   1.00
C6       0.78122    0.42793    0.56298   1.00
C6       0.78107    0.35553    0.57389   1.00
H2       0.71125    0.40853    0.60535   1.00
C6       0.65164    0.41595    0.59032   1.00
C6       0.68256    0.35332    0.61124   1.00
H2       0.56154    0.44816    0.54619   1.00
H2       0.53410    0.48658    0.52537   1.00
H2       0.53583    0.48028    0.57657   1.00
H2       0.56892    0.54620    0.59754   1.00
H2       0.59322    0.57066    0.55956   1.00
H2       0.54536    0.55367    0.55282   1.00
H2       0.72828    0.53287    0.50357   1.00
H2       0.69968    0.50737    0.46998   1.00
H2       0.69148    0.55782    0.47771   1.00
H2       0.65638    0.55004    0.58140   1.00
H2       0.70192    0.56233    0.56208   1.00
H2       0.65950    0.58247    0.54101   1.00
H2       0.60986    0.58590    0.48324   1.00
H2       0.57792    0.57747    0.44365   1.00
H2       0.56168    0.56852    0.49066   1.00
H2       0.64598    0.54720    0.42772   1.00
H2       0.64432    0.49622    0.42745   1.00
H2       0.60672    0.52277    0.40551   1.00
H2       0.64812    0.35346    0.47870   1.00
H2       0.64691    0.30879    0.50367   1.00
H2       0.63452    0.35188    0.52833   1.00
H2       0.71375    0.29880    0.47619   1.00
H2       0.71926    0.34603    0.45738   1.00
H2       0.75378    0.32695    0.49053   1.00
H2       0.81298    0.42739    0.55975   1.00
H2       0.77065    0.45277    0.54599   1.00
H2       0.77465    0.43336    0.59365   1.00
H2       0.77084    0.32676    0.56488   1.00
H2       0.81288    0.35538    0.57110   1.00
H2       0.77415    0.35959    0.60473   1.00
H2       0.62844    0.40303    0.57280   1.00
H2       0.64119    0.41864    0.62032   1.00
H2       0.65666    0.44533    0.57962   1.00
H2       0.67456    0.35964    0.64149   1.00
H2       0.65878    0.33648    0.59829   1.00
H2       0.70843    0.33485    0.61228   1.00
C4       1.18584    0.41258    0.41685   1.00
C4       1.14412    0.41330    0.41696   1.00
C3       1.20864    0.40063    0.44931   1.00
C3       1.12116    0.40558    0.45059   1.00
C3       1.20623    0.42501    0.38272   1.00
C3       1.12386    0.42210    0.38164   1.00
C2       1.27012    0.41380    0.41497   1.00
C2       1.05988    0.41620    0.41503   1.00
C3       1.24962    0.40142    0.44851   1.00
C3       1.08019    0.40662    0.44958   1.00
C3       1.24758    0.42490    0.38224   1.00
C3       1.08262    0.42464    0.38166   1.00
H1       1.19615    0.39087    0.47445   1.00
H1       1.13352    0.39921    0.47685   1.00
C5       1.18520    0.43731    0.34923   1.00
C5       1.14480    0.42866    0.34659   1.00
H1       1.26455    0.39271    0.47297   1.00
H1       1.06510    0.40045    0.47472   1.00
H1       1.26180    0.43286    0.35718   1.00
H1       1.06868    0.43341    0.35678   1.00
O3       1.20461    0.45530    0.31896   1.00
O3       1.12599    0.42951    0.31091   1.00
Si1      1.20747    0.50285    0.31758   1.00
Si1      1.11779    0.38843    0.28827   1.00
C6       1.24038    0.50610    0.27808   1.00
C6       1.16098    0.52069    0.30465   1.00
C6       1.22753    0.52331    0.36040   1.00
C6       1.13193    0.34453    0.31139   1.00
C6       1.06698    0.38868    0.28176   1.00
C6       1.13977    0.39196    0.24193   1.00
C6       1.27694    0.47868    0.28023   1.00
H2       1.22291    0.49499    0.25386   1.00
C6       1.25647    0.54664    0.26403   1.00
H2       1.14858    0.49595    0.28891   1.00
C6       1.13134    0.53026    0.33803   1.00
C6       1.15836    0.55607    0.27589   1.00
H2       1.25331    0.50512    0.36508   1.00
C6       1.24272    0.56637    0.35791   1.00
C6       1.20349    0.52215    0.39944   1.00
C6       1.17571    0.33969    0.32333   1.00
C6       1.10725    0.32852    0.34638   1.00
H2       1.12712    0.32298    0.28844   1.00
H2       1.05551    0.38457    0.31117   1.00
C6       1.04878    0.42793    0.26702   1.00
C6       1.04893    0.35553    0.25611   1.00
H2       1.11875    0.40853    0.22465   1.00
C6       1.17836    0.41595    0.23968   1.00
C6       1.14744    0.35332    0.21876   1.00
H2       1.26846    0.44816    0.28381   1.00
H2       1.29590    0.48658    0.30463   1.00
H2       1.29417    0.48028    0.25343   1.00
H2       1.26108    0.54620    0.23246   1.00
H2       1.23678    0.57066    0.27044   1.00
H2       1.28464    0.55367    0.27718   1.00
H2       1.10172    0.53287    0.32643   1.00
H2       1.13032    0.50737    0.36002   1.00
H2       1.13852    0.55782    0.35229   1.00
H2       1.17362    0.55004    0.24860   1.00
H2       1.12808    0.56233    0.26792   1.00
H2       1.17050    0.58247    0.28899   1.00
H2       1.22014    0.58590    0.34676   1.00
H2       1.25208    0.57747    0.38635   1.00
H2       1.26832    0.56852    0.33934   1.00
H2       1.18402    0.54720    0.40228   1.00
H2       1.18568    0.49622    0.40255   1.00
H2       1.22328    0.52277    0.42449   1.00
H2       1.18188    0.35346    0.35130   1.00
H2       1.18309    0.30879    0.32633   1.00
H2       1.19548    0.35188    0.30167   1.00
H2       1.11625    0.29880    0.35381   1.00
H2       1.11074    0.34603    0.37262   1.00
H2       1.07622    0.32695    0.33947   1.00
H2       1.01702    0.42739    0.27025   1.00
H2       1.05935    0.45277    0.28401   1.00
H2       1.05535    0.43336    0.23635   1.00
H2       1.05916    0.32676    0.26512   1.00
H2       1.01712    0.35538    0.25890   1.00
H2       1.05585    0.35959    0.22527   1.00
H2       1.20156    0.40303    0.25720   1.00
H2       1.18881    0.41864    0.20968   1.00
H2       1.17334    0.44533    0.25038   1.00
H2       1.15544    0.35964    0.18851   1.00
H2       1.17122    0.33648    0.23171   1.00
H2       1.12157    0.33485    0.21772   1.00
C4       0.91315    0.14416    0.41258   1.00
C4       0.91304    0.18588    0.41330   1.00
C3       0.88069    0.12136    0.40063   1.00
C3       0.87941    0.20884    0.40558   1.00
C3       0.94728    0.12377    0.42501   1.00
C3       0.94836    0.20614    0.42210   1.00
C2       0.91503    0.05988    0.41380   1.00
C2       0.91497    0.27012    0.41620   1.00
C3       0.88149    0.08038    0.40142   1.00
C3       0.88042    0.24981    0.40662   1.00
C3       0.94776    0.08242    0.42490   1.00
C3       0.94834    0.24738    0.42464   1.00
H1       0.85555    0.13385    0.39087   1.00
H1       0.85315    0.19648    0.39921   1.00
C5       0.98077    0.14480    0.43731   1.00
C5       0.98341    0.18520    0.42866   1.00
H1       0.85703    0.06545    0.39271   1.00
H1       0.85528    0.26490    0.40045   1.00
H1       0.97282    0.06820    0.43286   1.00
H1       0.97322    0.26132    0.43341   1.00
O3       1.01104    0.12539    0.45530   1.00
O3       1.01909    0.20401    0.42951   1.00
Si1      1.01242    0.12253    0.50285   1.00
Si1      1.04173    0.21221    0.38843   1.00
C6       1.05192    0.08962    0.50610   1.00
C6       1.02535    0.16902    0.52069   1.00
C6       0.96960    0.10247    0.52331   1.00
C6       1.01861    0.19807    0.34453   1.00
C6       1.04824    0.26302    0.38868   1.00
C6       1.08807    0.19023    0.39196   1.00
C6       1.04977    0.05306    0.47868   1.00
H2       1.07614    0.10709    0.49499   1.00
C6       1.06597    0.07353    0.54664   1.00
H2       1.04109    0.18142    0.49595   1.00
C6       0.99197    0.19866    0.53026   1.00
C6       1.05411    0.17164    0.55607   1.00
H2       0.96492    0.07669    0.50512   1.00
C6       0.97209    0.08728    0.56637   1.00
C6       0.93056    0.12651    0.52215   1.00
C6       1.00667    0.15429    0.33969   1.00
C6       0.98362    0.22275    0.32852   1.00
H2       1.04156    0.20288    0.32298   1.00
H2       1.01883    0.27449    0.38457   1.00
C6       1.06298    0.28122    0.42793   1.00
C6       1.07389    0.28107    0.35553   1.00
H2       1.10535    0.21125    0.40853   1.00
C6       1.09032    0.15164    0.41595   1.00
C6       1.11124    0.18256    0.35332   1.00
H2       1.04619    0.06154    0.44816   1.00
H2       1.02537    0.03410    0.48658   1.00
H2       1.07657    0.03583    0.48028   1.00
H2       1.09754    0.06892    0.54620   1.00
H2       1.05956    0.09322    0.57066   1.00
H2       1.05282    0.04536    0.55367   1.00
H2       1.00357    0.22828    0.53287   1.00
H2       0.96998    0.19968    0.50737   1.00
H2       0.97771    0.19148    0.55782   1.00
H2       1.08140    0.15638    0.55004   1.00
H2       1.06208    0.20192    0.56233   1.00
H2       1.04101    0.15950    0.58247   1.00
H2       0.98324    0.10986    0.58590   1.00
H2       0.94365    0.07792    0.57747   1.00
H2       0.99066    0.06168    0.56852   1.00
H2       0.92772    0.14598    0.54720   1.00
H2       0.92745    0.14432    0.49622   1.00
H2       0.90551    0.10672    0.52277   1.00
H2       0.97870    0.14812    0.35346   1.00
H2       1.00367    0.14691    0.30879   1.00
H2       1.02833    0.13452    0.35188   1.00
H2       0.97619    0.21375    0.29880   1.00
H2       0.95738    0.21926    0.34603   1.00
H2       0.99053    0.25378    0.32695   1.00
H2       1.05975    0.31298    0.42739   1.00
H2       1.04599    0.27065    0.45277   1.00
H2       1.09365    0.27465    0.43336   1.00
H2       1.06488    0.27084    0.32676   1.00
H2       1.07110    0.31288    0.35538   1.00
H2       1.10473    0.27415    0.35959   1.00
H2       1.07280    0.12844    0.40303   1.00
H2       1.12032    0.14119    0.41864   1.00
H2       1.07962    0.15666    0.44533   1.00
H2       1.14149    0.17456    0.35964   1.00
H2       1.09829    0.15878    0.33648   1.00
H2       1.11228    0.20843    0.33485   1.00
C4       0.91258    0.41315    0.14416   1.00
C4       0.91330    0.41304    0.18588   1.00
C3       0.90063    0.38069    0.12136   1.00
C3       0.90558    0.37941    0.20884   1.00
C3       0.92501    0.44728    0.12377   1.00
C3       0.92210    0.44836    0.20614   1.00
C2       0.91380    0.41503    0.05988   1.00
C2       0.91620    0.41497    0.27012   1.00
C3       0.90142    0.38149    0.08038   1.00
C3       0.90662    0.38042    0.24981   1.00
C3       0.92490    0.44776    0.08242   1.00
C3       0.92464    0.44834    0.24738   1.00
H1       0.89087    0.35555    0.13385   1.00
H1       0.89921    0.35315    0.19648   1.00
C5       0.93731    0.48077    0.14480   1.00
C5       0.92866    0.48341    0.18520   1.00
H1       0.89271    0.35703    0.06545   1.00
H1       0.90045    0.35528    0.26490   1.00
H1       0.93286    0.47282    0.06820   1.00
H1       0.93341    0.47322    0.26132   1.00
O3       0.95530    0.51104    0.12539   1.00
O3       0.92951    0.51909    0.20401   1.00
Si1      1.00285    0.51242    0.12253   1.00
Si1      0.88843    0.54173    0.21221   1.00
C6       1.00610    0.55192    0.08962   1.00
C6       1.02069    0.52535    0.16902   1.00
C6       1.02331    0.46960    0.10247   1.00
C6       0.84453    0.51861    0.19807   1.00
C6       0.88868    0.54824    0.26302   1.00
C6       0.89196    0.58807    0.19023   1.00
C6       0.97868    0.54977    0.05306   1.00
H2       0.99499    0.57614    0.10709   1.00
C6       1.04664    0.56597    0.07353   1.00
H2       0.99595    0.54109    0.18142   1.00
C6       1.03026    0.49197    0.19866   1.00
C6       1.05607    0.55411    0.17164   1.00
H2       1.00512    0.46492    0.07669   1.00
C6       1.06637    0.47209    0.08728   1.00
C6       1.02215    0.43056    0.12651   1.00
C6       0.83969    0.50667    0.15429   1.00
C6       0.82852    0.48362    0.22275   1.00
H2       0.82298    0.54156    0.20288   1.00
H2       0.88457    0.51883    0.27449   1.00
C6       0.92793    0.56298    0.28122   1.00
C6       0.85553    0.57389    0.28107   1.00
H2       0.90853    0.60535    0.21125   1.00
C6       0.91595    0.59032    0.15164   1.00
C6       0.85332    0.61124    0.18256   1.00
H2       0.94816    0.54619    0.06154   1.00
H2       0.98658    0.52537    0.03410   1.00
H2       0.98028    0.57657    0.03583   1.00
H2       1.04620    0.59754    0.06892   1.00
H2       1.07066    0.55956    0.09322   1.00
H2       1.05367    0.55282    0.04536   1.00
H2       1.03287    0.50357    0.22828   1.00
H2       1.00737    0.46998    0.19968   1.00
H2       1.05782    0.47771    0.19148   1.00
H2       1.05004    0.58140    0.15638   1.00
H2       1.06233    0.56208    0.20192   1.00
H2       1.08247    0.54101    0.15950   1.00
H2       1.08590    0.48324    0.10986   1.00
H2       1.07747    0.44365    0.07792   1.00
H2       1.06852    0.49066    0.06168   1.00
H2       1.04720    0.42772    0.14598   1.00
H2       0.99622    0.42745    0.14432   1.00
H2       1.02277    0.40551    0.10672   1.00
H2       0.85346    0.47870    0.14812   1.00
H2       0.80879    0.50367    0.14691   1.00
H2       0.85188    0.52833    0.13452   1.00
H2       0.79880    0.47619    0.21375   1.00
H2       0.84603    0.45738    0.21926   1.00
H2       0.82695    0.49053    0.25378   1.00
H2       0.92739    0.55975    0.31298   1.00
H2       0.95277    0.54599    0.27065   1.00
H2       0.93336    0.59365    0.27465   1.00
H2       0.82676    0.56488    0.27084   1.00
H2       0.85538    0.57110    0.31288   1.00
H2       0.85959    0.60473    0.27415   1.00
H2       0.90303    0.57280    0.12844   1.00
H2       0.91864    0.62032    0.14119   1.00
H2       0.94533    0.57962    0.15666   1.00
H2       0.85964    0.64149    0.17456   1.00
H2       0.83648    0.59829    0.15878   1.00
H2       0.83485    0.61228    0.20843   1.00
