data_IRMOF10_SG202_interpen_Ligand4cp_label_d.

_audit_creation_method             'generated by an auxiliary program of Tobunporous'

_symmetry_space_group_name_H-M     'P 1'
_symmetry_Int_Tables_number        1
_symmetry_cell_setting             triclinic

_cell_length_a                    34.2800
_cell_length_b                    34.2800
_cell_length_c                    34.2800
_cell_angle_alpha                 90.0000
_cell_angle_beta                  90.0000
_cell_angle_gamma                 90.0000

loop_
_atom_site_label
_atom_site_fract_x
_atom_site_fract_y
_atom_site_fract_z
_atom_site_occupancy
O1       0.75000    0.75000    0.75000   1.00
Zn1      0.71720    0.78280    0.78280   1.00
Zn1      0.78280    0.71720    0.78280   1.00
Zn1      0.78280    0.78280    0.71720   1.00
Zn1      0.71720    0.71720    0.71720   1.00
O2       0.72650    0.77350    0.83820   1.00
O2       0.72650    0.83820    0.77350   1.00
O2       0.66180    0.77350    0.77350   1.00
O2       0.77350    0.72650    0.83820   1.00
O2       0.83820    0.72650    0.77350   1.00
O2       0.77350    0.66180    0.77350   1.00
O2       0.77350    0.83820    0.72650   1.00
O2       0.83820    0.77350    0.72650   1.00
O2       0.77350    0.77350    0.66180   1.00
O2       0.66180    0.72650    0.72650   1.00
O2       0.72650    0.66180    0.72650   1.00
O2       0.72650    0.72650    0.66180   1.00
C1       0.75000    0.75000    0.85520   1.00
C1       0.75000    0.85520    0.75000   1.00
C1       0.64480    0.75000    0.75000   1.00
C1       0.85520    0.75000    0.75000   1.00
C1       0.75000    0.64480    0.75000   1.00
C1       0.75000    0.75000    0.64480   1.00
O1       0.25000    0.25000    0.75000   1.00
Zn1      0.21720    0.28280    0.78280   1.00
Zn1      0.28280    0.21720    0.78280   1.00
Zn1      0.28280    0.28280    0.71720   1.00
Zn1      0.21720    0.21720    0.71720   1.00
O2       0.22650    0.27350    0.83820   1.00
O2       0.22650    0.33820    0.77350   1.00
O2       0.16180    0.27350    0.77350   1.00
O2       0.27350    0.22650    0.83820   1.00
O2       0.33820    0.22650    0.77350   1.00
O2       0.27350    0.16180    0.77350   1.00
O2       0.27350    0.33820    0.72650   1.00
O2       0.33820    0.27350    0.72650   1.00
O2       0.27350    0.27350    0.66180   1.00
O2       0.16180    0.22650    0.72650   1.00
O2       0.22650    0.16180    0.72650   1.00
O2       0.22650    0.22650    0.66180   1.00
C1       0.25000    0.25000    0.85520   1.00
C1       0.25000    0.35520    0.75000   1.00
C1       0.14480    0.25000    0.75000   1.00
C1       0.35520    0.25000    0.75000   1.00
C1       0.25000    0.14480    0.75000   1.00
C1       0.25000    0.25000    0.64480   1.00
O1       0.25000    0.75000    0.25000   1.00
Zn1      0.21720    0.78280    0.28280   1.00
Zn1      0.28280    0.71720    0.28280   1.00
Zn1      0.28280    0.78280    0.21720   1.00
Zn1      0.21720    0.71720    0.21720   1.00
O2       0.22650    0.77350    0.33820   1.00
O2       0.22650    0.83820    0.27350   1.00
O2       0.16180    0.77350    0.27350   1.00
O2       0.27350    0.72650    0.33820   1.00
O2       0.33820    0.72650    0.27350   1.00
O2       0.27350    0.66180    0.27350   1.00
O2       0.27350    0.83820    0.22650   1.00
O2       0.33820    0.77350    0.22650   1.00
O2       0.27350    0.77350    0.16180   1.00
O2       0.16180    0.72650    0.22650   1.00
O2       0.22650    0.66180    0.22650   1.00
O2       0.22650    0.72650    0.16180   1.00
C1       0.25000    0.75000    0.35520   1.00
C1       0.25000    0.85520    0.25000   1.00
C1       0.14480    0.75000    0.25000   1.00
C1       0.35520    0.75000    0.25000   1.00
C1       0.25000    0.64480    0.25000   1.00
C1       0.25000    0.75000    0.14480   1.00
O1       0.75000    0.25000    0.25000   1.00
Zn1      0.71720    0.28280    0.28280   1.00
Zn1      0.78280    0.21720    0.28280   1.00
Zn1      0.78280    0.28280    0.21720   1.00
Zn1      0.71720    0.21720    0.21720   1.00
O2       0.72650    0.27350    0.33820   1.00
O2       0.72650    0.33820    0.27350   1.00
O2       0.66180    0.27350    0.27350   1.00
O2       0.77350    0.22650    0.33820   1.00
O2       0.83820    0.22650    0.27350   1.00
O2       0.77350    0.16180    0.27350   1.00
O2       0.77350    0.33820    0.22650   1.00
O2       0.83820    0.27350    0.22650   1.00
O2       0.77350    0.27350    0.16180   1.00
O2       0.66180    0.22650    0.22650   1.00
O2       0.72650    0.16180    0.22650   1.00
O2       0.72650    0.22650    0.16180   1.00
C1       0.75000    0.25000    0.35520   1.00
C1       0.75000    0.35520    0.25000   1.00
C1       0.64480    0.25000    0.25000   1.00
C1       0.85520    0.25000    0.25000   1.00
C1       0.75000    0.14480    0.25000   1.00
C1       0.75000    0.25000    0.14480   1.00
O1       0.25000    0.25000    0.25000   1.00
Zn1      0.28280    0.21720    0.21720   1.00
Zn1      0.21720    0.28280    0.21720   1.00
Zn1      0.21720    0.21720    0.28280   1.00
Zn1      0.28280    0.28280    0.28280   1.00
O2       0.27350    0.22650    0.16180   1.00
O2       0.27350    0.16180    0.22650   1.00
O2       0.33820    0.22650    0.22650   1.00
O2       0.22650    0.27350    0.16180   1.00
O2       0.16180    0.27350    0.22650   1.00
O2       0.22650    0.33820    0.22650   1.00
O2       0.22650    0.16180    0.27350   1.00
O2       0.16180    0.22650    0.27350   1.00
O2       0.22650    0.22650    0.33820   1.00
O2       0.33820    0.27350    0.27350   1.00
O2       0.27350    0.33820    0.27350   1.00
O2       0.27350    0.27350    0.33820   1.00
C1       0.25000    0.25000    0.14480   1.00
C1       0.25000    0.14480    0.25000   1.00
C1       0.35520    0.25000    0.25000   1.00
C1       0.14480    0.25000    0.25000   1.00
C1       0.25000    0.35520    0.25000   1.00
C1       0.25000    0.25000    0.35520   1.00
O1       0.75000    0.75000    0.25000   1.00
Zn1      0.78280    0.71720    0.21720   1.00
Zn1      0.71720    0.78280    0.21720   1.00
Zn1      0.71720    0.71720    0.28280   1.00
Zn1      0.78280    0.78280    0.28280   1.00
O2       0.77350    0.72650    0.16180   1.00
O2       0.77350    0.66180    0.22650   1.00
O2       0.83820    0.72650    0.22650   1.00
O2       0.72650    0.77350    0.16180   1.00
O2       0.66180    0.77350    0.22650   1.00
O2       0.72650    0.83820    0.22650   1.00
O2       0.72650    0.66180    0.27350   1.00
O2       0.66180    0.72650    0.27350   1.00
O2       0.72650    0.72650    0.33820   1.00
O2       0.83820    0.77350    0.27350   1.00
O2       0.77350    0.83820    0.27350   1.00
O2       0.77350    0.77350    0.33820   1.00
C1       0.75000    0.75000    0.14480   1.00
C1       0.75000    0.64480    0.25000   1.00
C1       0.85520    0.75000    0.25000   1.00
C1       0.64480    0.75000    0.25000   1.00
C1       0.75000    0.85520    0.25000   1.00
C1       0.75000    0.75000    0.35520   1.00
O1       0.75000    0.25000    0.75000   1.00
Zn1      0.78280    0.21720    0.71720   1.00
Zn1      0.71720    0.28280    0.71720   1.00
Zn1      0.71720    0.21720    0.78280   1.00
Zn1      0.78280    0.28280    0.78280   1.00
O2       0.77350    0.22650    0.66180   1.00
O2       0.77350    0.16180    0.72650   1.00
O2       0.83820    0.22650    0.72650   1.00
O2       0.72650    0.27350    0.66180   1.00
O2       0.66180    0.27350    0.72650   1.00
O2       0.72650    0.33820    0.72650   1.00
O2       0.72650    0.16180    0.77350   1.00
O2       0.66180    0.22650    0.77350   1.00
O2       0.72650    0.22650    0.83820   1.00
O2       0.83820    0.27350    0.77350   1.00
O2       0.77350    0.33820    0.77350   1.00
O2       0.77350    0.27350    0.83820   1.00
C1       0.75000    0.25000    0.64480   1.00
C1       0.75000    0.14480    0.75000   1.00
C1       0.85520    0.25000    0.75000   1.00
C1       0.64480    0.25000    0.75000   1.00
C1       0.75000    0.35520    0.75000   1.00
C1       0.75000    0.25000    0.85520   1.00
O1       0.25000    0.75000    0.75000   1.00
Zn1      0.28280    0.71720    0.71720   1.00
Zn1      0.21720    0.78280    0.71720   1.00
Zn1      0.21720    0.71720    0.78280   1.00
Zn1      0.28280    0.78280    0.78280   1.00
O2       0.27350    0.72650    0.66180   1.00
O2       0.27350    0.66180    0.72650   1.00
O2       0.33820    0.72650    0.72650   1.00
O2       0.22650    0.77350    0.66180   1.00
O2       0.16180    0.77350    0.72650   1.00
O2       0.22650    0.83820    0.72650   1.00
O2       0.22650    0.66180    0.77350   1.00
O2       0.16180    0.72650    0.77350   1.00
O2       0.22650    0.72650    0.83820   1.00
O2       0.33820    0.77350    0.77350   1.00
O2       0.27350    0.83820    0.77350   1.00
O2       0.27350    0.77350    0.83820   1.00
C1       0.25000    0.75000    0.64480   1.00
C1       0.25000    0.64480    0.75000   1.00
C1       0.35520    0.75000    0.75000   1.00
C1       0.14480    0.75000    0.75000   1.00
C1       0.25000    0.85520    0.75000   1.00
C1       0.25000    0.75000    0.85520   1.00
O1       0.91500    0.91500    0.91500   1.00
Zn1      0.88220    0.94780    0.94780   1.00
Zn1      0.94780    0.88220    0.94780   1.00
Zn1      0.94780    0.94780    0.88220   1.00
Zn1      0.88220    0.88220    0.88220   1.00
O2       0.89150    0.93850    1.00320   1.00
O2       0.89150    1.00320    0.93850   1.00
O2       0.82680    0.93850    0.93850   1.00
O2       0.93850    0.89150    1.00320   1.00
O2       1.00320    0.89150    0.93850   1.00
O2       0.93850    0.82680    0.93850   1.00
O2       0.93850    1.00320    0.89150   1.00
O2       1.00320    0.93850    0.89150   1.00
O2       0.93850    0.93850    0.82680   1.00
O2       0.82680    0.89150    0.89150   1.00
O2       0.89150    0.82680    0.89150   1.00
O2       0.89150    0.89150    0.82680   1.00
C1       0.91500    0.91500    1.02020   1.00
C1       0.91500    1.02020    0.91500   1.00
C1       0.80980    0.91500    0.91500   1.00
C1       1.02020    0.91500    0.91500   1.00
C1       0.91500    0.80980    0.91500   1.00
C1       0.91500    0.91500    0.80980   1.00
O1       0.41500    0.41500    0.91500   1.00
Zn1      0.38220    0.44780    0.94780   1.00
Zn1      0.44780    0.38220    0.94780   1.00
Zn1      0.44780    0.44780    0.88220   1.00
Zn1      0.38220    0.38220    0.88220   1.00
O2       0.39150    0.43850    1.00320   1.00
O2       0.39150    0.50320    0.93850   1.00
O2       0.32680    0.43850    0.93850   1.00
O2       0.43850    0.39150    1.00320   1.00
O2       0.50320    0.39150    0.93850   1.00
O2       0.43850    0.32680    0.93850   1.00
O2       0.43850    0.50320    0.89150   1.00
O2       0.50320    0.43850    0.89150   1.00
O2       0.43850    0.43850    0.82680   1.00
O2       0.32680    0.39150    0.89150   1.00
O2       0.39150    0.32680    0.89150   1.00
O2       0.39150    0.39150    0.82680   1.00
C1       0.41500    0.41500    1.02020   1.00
C1       0.41500    0.52020    0.91500   1.00
C1       0.30980    0.41500    0.91500   1.00
C1       0.52020    0.41500    0.91500   1.00
C1       0.41500    0.30980    0.91500   1.00
C1       0.41500    0.41500    0.80980   1.00
O1       0.41500    0.91500    0.41500   1.00
Zn1      0.38220    0.94780    0.44780   1.00
Zn1      0.44780    0.88220    0.44780   1.00
Zn1      0.44780    0.94780    0.38220   1.00
Zn1      0.38220    0.88220    0.38220   1.00
O2       0.39150    0.93850    0.50320   1.00
O2       0.39150    1.00320    0.43850   1.00
O2       0.32680    0.93850    0.43850   1.00
O2       0.43850    0.89150    0.50320   1.00
O2       0.50320    0.89150    0.43850   1.00
O2       0.43850    0.82680    0.43850   1.00
O2       0.43850    1.00320    0.39150   1.00
O2       0.50320    0.93850    0.39150   1.00
O2       0.43850    0.93850    0.32680   1.00
O2       0.32680    0.89150    0.39150   1.00
O2       0.39150    0.82680    0.39150   1.00
O2       0.39150    0.89150    0.32680   1.00
C1       0.41500    0.91500    0.52020   1.00
C1       0.41500    1.02020    0.41500   1.00
C1       0.30980    0.91500    0.41500   1.00
C1       0.52020    0.91500    0.41500   1.00
C1       0.41500    0.80980    0.41500   1.00
C1       0.41500    0.91500    0.30980   1.00
O1       0.91500    0.41500    0.41500   1.00
Zn1      0.88220    0.44780    0.44780   1.00
Zn1      0.94780    0.38220    0.44780   1.00
Zn1      0.94780    0.44780    0.38220   1.00
Zn1      0.88220    0.38220    0.38220   1.00
O2       0.89150    0.43850    0.50320   1.00
O2       0.89150    0.50320    0.43850   1.00
O2       0.82680    0.43850    0.43850   1.00
O2       0.93850    0.39150    0.50320   1.00
O2       1.00320    0.39150    0.43850   1.00
O2       0.93850    0.32680    0.43850   1.00
O2       0.93850    0.50320    0.39150   1.00
O2       1.00320    0.43850    0.39150   1.00
O2       0.93850    0.43850    0.32680   1.00
O2       0.82680    0.39150    0.39150   1.00
O2       0.89150    0.32680    0.39150   1.00
O2       0.89150    0.39150    0.32680   1.00
C1       0.91500    0.41500    0.52020   1.00
C1       0.91500    0.52020    0.41500   1.00
C1       0.80980    0.41500    0.41500   1.00
C1       1.02020    0.41500    0.41500   1.00
C1       0.91500    0.30980    0.41500   1.00
C1       0.91500    0.41500    0.30980   1.00
O1       0.41500    0.41500    0.41500   1.00
Zn1      0.44780    0.38220    0.38220   1.00
Zn1      0.38220    0.44780    0.38220   1.00
Zn1      0.38220    0.38220    0.44780   1.00
Zn1      0.44780    0.44780    0.44780   1.00
O2       0.43850    0.39150    0.32680   1.00
O2       0.43850    0.32680    0.39150   1.00
O2       0.50320    0.39150    0.39150   1.00
O2       0.39150    0.43850    0.32680   1.00
O2       0.32680    0.43850    0.39150   1.00
O2       0.39150    0.50320    0.39150   1.00
O2       0.39150    0.32680    0.43850   1.00
O2       0.32680    0.39150    0.43850   1.00
O2       0.39150    0.39150    0.50320   1.00
O2       0.50320    0.43850    0.43850   1.00
O2       0.43850    0.50320    0.43850   1.00
O2       0.43850    0.43850    0.50320   1.00
C1       0.41500    0.41500    0.30980   1.00
C1       0.41500    0.30980    0.41500   1.00
C1       0.52020    0.41500    0.41500   1.00
C1       0.30980    0.41500    0.41500   1.00
C1       0.41500    0.52020    0.41500   1.00
C1       0.41500    0.41500    0.52020   1.00
O1       0.91500    0.91500    0.41500   1.00
Zn1      0.94780    0.88220    0.38220   1.00
Zn1      0.88220    0.94780    0.38220   1.00
Zn1      0.88220    0.88220    0.44780   1.00
Zn1      0.94780    0.94780    0.44780   1.00
O2       0.93850    0.89150    0.32680   1.00
O2       0.93850    0.82680    0.39150   1.00
O2       1.00320    0.89150    0.39150   1.00
O2       0.89150    0.93850    0.32680   1.00
O2       0.82680    0.93850    0.39150   1.00
O2       0.89150    1.00320    0.39150   1.00
O2       0.89150    0.82680    0.43850   1.00
O2       0.82680    0.89150    0.43850   1.00
O2       0.89150    0.89150    0.50320   1.00
O2       1.00320    0.93850    0.43850   1.00
O2       0.93850    1.00320    0.43850   1.00
O2       0.93850    0.93850    0.50320   1.00
C1       0.91500    0.91500    0.30980   1.00
C1       0.91500    0.80980    0.41500   1.00
C1       1.02020    0.91500    0.41500   1.00
C1       0.80980    0.91500    0.41500   1.00
C1       0.91500    1.02020    0.41500   1.00
C1       0.91500    0.91500    0.52020   1.00
O1       0.91500    0.41500    0.91500   1.00
Zn1      0.94780    0.38220    0.88220   1.00
Zn1      0.88220    0.44780    0.88220   1.00
Zn1      0.88220    0.38220    0.94780   1.00
Zn1      0.94780    0.44780    0.94780   1.00
O2       0.93850    0.39150    0.82680   1.00
O2       0.93850    0.32680    0.89150   1.00
O2       1.00320    0.39150    0.89150   1.00
O2       0.89150    0.43850    0.82680   1.00
O2       0.82680    0.43850    0.89150   1.00
O2       0.89150    0.50320    0.89150   1.00
O2       0.89150    0.32680    0.93850   1.00
O2       0.82680    0.39150    0.93850   1.00
O2       0.89150    0.39150    1.00320   1.00
O2       1.00320    0.43850    0.93850   1.00
O2       0.93850    0.50320    0.93850   1.00
O2       0.93850    0.43850    1.00320   1.00
C1       0.91500    0.41500    0.80980   1.00
C1       0.91500    0.30980    0.91500   1.00
C1       1.02020    0.41500    0.91500   1.00
C1       0.80980    0.41500    0.91500   1.00
C1       0.91500    0.52020    0.91500   1.00
C1       0.91500    0.41500    1.02020   1.00
O1       0.41500    0.91500    0.91500   1.00
Zn1      0.44780    0.88220    0.88220   1.00
Zn1      0.38220    0.94780    0.88220   1.00
Zn1      0.38220    0.88220    0.94780   1.00
Zn1      0.44780    0.94780    0.94780   1.00
O2       0.43850    0.89150    0.82680   1.00
O2       0.43850    0.82680    0.89150   1.00
O2       0.50320    0.89150    0.89150   1.00
O2       0.39150    0.93850    0.82680   1.00
O2       0.32680    0.93850    0.89150   1.00
O2       0.39150    1.00320    0.89150   1.00
O2       0.39150    0.82680    0.93850   1.00
O2       0.32680    0.89150    0.93850   1.00
O2       0.39150    0.89150    1.00320   1.00
O2       0.50320    0.93850    0.93850   1.00
O2       0.43850    1.00320    0.93850   1.00
O2       0.43850    0.93850    1.00320   1.00
C1       0.41500    0.91500    0.80980   1.00
C1       0.41500    0.80980    0.91500   1.00
C1       0.52020    0.91500    0.91500   1.00
C1       0.30980    0.91500    0.91500   1.00
C1       0.41500    1.02020    0.91500   1.00
C1       0.41500    0.91500    1.02020   1.00
C4       0.74990    0.74521    0.98025   1.00
C4       0.74863    0.74432    1.02191   1.00
C3       0.78547    0.74199    0.95897   1.00
C3       0.78218    0.73605    1.04504   1.00
C3       0.71452    0.74953    0.95854   1.00
C3       0.71267    0.75184    1.04170   1.00
C2       0.75230    0.74509    0.89595   1.00
C2       0.74654    0.74438    1.10622   1.00
C3       0.78670    0.74172    0.91811   1.00
C3       0.78129    0.73626    1.08591   1.00
C3       0.71700    0.74891    0.91696   1.00
C3       0.71305    0.75199    1.08336   1.00
H1       0.81188    0.74010    0.97237   1.00
H1       0.80844    0.72919    1.03306   1.00
C5       0.67799    0.75454    0.97835   1.00
C5       0.67757    0.75873    1.01998   1.00
H1       0.81328    0.73915    0.90451   1.00
H1       0.80653    0.73022    1.10091   1.00
H1       0.69245    0.75163    0.90052   1.00
H1       0.68812    0.75749    1.09848   1.00
C6       0.64039    0.75490    0.95515   1.00
C6       0.64071    0.77075    1.04119   1.00
H2       0.64135    0.73167    0.93345   1.00
H2       0.64800    0.79260    1.06310   1.00
H2       0.61560    0.74609    0.97286   1.00
H2       0.62106    0.78694    1.02228   1.00
C6       0.63136    0.79548    0.93606   1.00
C6       0.61808    0.73542    1.05942   1.00
H2       0.65794    0.80725    0.92292   1.00
H2       0.63870    0.71581    1.07383   1.00
C6       0.59829    0.79713    0.90459   1.00
C6       0.58465    0.74483    1.08911   1.00
H2       0.62389    0.81577    0.95949   1.00
H2       0.60568    0.71844    1.03546   1.00
C6       0.60946    0.77393    0.86735   1.00
C6       0.60076    0.76349    1.12708   1.00
C6       0.55910    0.78142    0.92074   1.00
C6       0.55354    0.77222    1.07107   1.00
C6       0.59208    0.84034    0.89245   1.00
C6       0.56419    0.70604    1.10054   1.00
H2       0.63735    0.78391    0.85558   1.00
H2       0.62328    0.74514    1.14020   1.00
H2       0.61194    0.74282    0.87330   1.00
H2       0.61347    0.79208    1.12154   1.00
H2       0.58747    0.77748    0.84459   1.00
H2       0.57765    0.76743    1.14863   1.00
H2       0.53563    0.78527    0.89955   1.00
H2       0.52901    0.77634    1.09098   1.00
H2       0.56109    0.75035    0.92725   1.00
H2       0.56580    0.80092    1.06494   1.00
H2       0.55096    0.79672    0.94745   1.00
H2       0.54230    0.76014    1.04385   1.00
H2       0.61886    0.85275    0.88042   1.00
H2       0.58485    0.68575    1.11383   1.00
H2       0.56937    0.84298    0.87025   1.00
H2       0.54072    0.71107    1.12149   1.00
H2       0.58334    0.85811    0.91739   1.00
H2       0.55149    0.69183    1.07502   1.00
C4       0.74521    0.98025    0.74990   1.00
C4       0.74432    1.02191    0.74863   1.00
C3       0.74199    0.95897    0.78547   1.00
C3       0.73605    1.04504    0.78218   1.00
C3       0.74953    0.95854    0.71452   1.00
C3       0.75184    1.04170    0.71267   1.00
C2       0.74509    0.89595    0.75230   1.00
C2       0.74438    1.10622    0.74654   1.00
C3       0.74172    0.91811    0.78670   1.00
C3       0.73626    1.08591    0.78129   1.00
C3       0.74891    0.91696    0.71700   1.00
C3       0.75199    1.08336    0.71305   1.00
H1       0.74010    0.97237    0.81188   1.00
H1       0.72919    1.03306    0.80844   1.00
C5       0.75454    0.97835    0.67799   1.00
C5       0.75873    1.01998    0.67757   1.00
H1       0.73915    0.90451    0.81328   1.00
H1       0.73022    1.10091    0.80653   1.00
H1       0.75163    0.90052    0.69245   1.00
H1       0.75749    1.09848    0.68812   1.00
C6       0.75490    0.95515    0.64039   1.00
C6       0.77075    1.04119    0.64071   1.00
H2       0.73167    0.93345    0.64135   1.00
H2       0.79260    1.06310    0.64800   1.00
H2       0.74609    0.97286    0.61560   1.00
H2       0.78694    1.02228    0.62106   1.00
C6       0.79548    0.93606    0.63136   1.00
C6       0.73542    1.05942    0.61808   1.00
H2       0.80725    0.92292    0.65794   1.00
H2       0.71581    1.07383    0.63870   1.00
C6       0.79713    0.90459    0.59829   1.00
C6       0.74483    1.08911    0.58465   1.00
H2       0.81577    0.95949    0.62389   1.00
H2       0.71844    1.03546    0.60568   1.00
C6       0.77393    0.86735    0.60946   1.00
C6       0.76349    1.12708    0.60076   1.00
C6       0.78142    0.92074    0.55910   1.00
C6       0.77222    1.07107    0.55354   1.00
C6       0.84034    0.89245    0.59208   1.00
C6       0.70604    1.10054    0.56419   1.00
H2       0.78391    0.85558    0.63735   1.00
H2       0.74514    1.14020    0.62328   1.00
H2       0.74282    0.87330    0.61194   1.00
H2       0.79208    1.12154    0.61347   1.00
H2       0.77748    0.84459    0.58747   1.00
H2       0.76743    1.14863    0.57765   1.00
H2       0.78527    0.89955    0.53563   1.00
H2       0.77634    1.09098    0.52901   1.00
H2       0.75035    0.92725    0.56109   1.00
H2       0.80092    1.06494    0.56580   1.00
H2       0.79672    0.94745    0.55096   1.00
H2       0.76014    1.04385    0.54230   1.00
H2       0.85275    0.88042    0.61886   1.00
H2       0.68575    1.11383    0.58485   1.00
H2       0.84298    0.87025    0.56937   1.00
H2       0.71107    1.12149    0.54072   1.00
H2       0.85811    0.91739    0.58334   1.00
H2       0.69183    1.07502    0.55149   1.00
C4       0.51975    0.74990    0.75479   1.00
C4       0.47809    0.74863    0.75568   1.00
C3       0.54103    0.78547    0.75801   1.00
C3       0.45496    0.78218    0.76395   1.00
C3       0.54146    0.71452    0.75047   1.00
C3       0.45830    0.71267    0.74816   1.00
C2       0.60405    0.75230    0.75491   1.00
C2       0.39378    0.74654    0.75562   1.00
C3       0.58189    0.78670    0.75828   1.00
C3       0.41409    0.78129    0.76374   1.00
C3       0.58304    0.71700    0.75109   1.00
C3       0.41664    0.71305    0.74801   1.00
H1       0.52763    0.81188    0.75990   1.00
H1       0.46694    0.80844    0.77081   1.00
C5       0.52165    0.67799    0.74546   1.00
C5       0.48002    0.67757    0.74127   1.00
H1       0.59549    0.81328    0.76085   1.00
H1       0.39909    0.80653    0.76978   1.00
H1       0.59948    0.69245    0.74837   1.00
H1       0.40152    0.68812    0.74251   1.00
C6       0.54485    0.64039    0.74510   1.00
C6       0.45881    0.64071    0.72925   1.00
H2       0.56655    0.64135    0.76833   1.00
H2       0.43690    0.64800    0.70740   1.00
H2       0.52714    0.61560    0.75391   1.00
H2       0.47772    0.62106    0.71306   1.00
C6       0.56394    0.63136    0.70452   1.00
C6       0.44058    0.61808    0.76458   1.00
H2       0.57708    0.65794    0.69275   1.00
H2       0.42617    0.63870    0.78419   1.00
C6       0.59541    0.59829    0.70287   1.00
C6       0.41089    0.58465    0.75517   1.00
H2       0.54051    0.62389    0.68423   1.00
H2       0.46454    0.60568    0.78156   1.00
C6       0.63265    0.60946    0.72607   1.00
C6       0.37292    0.60076    0.73651   1.00
C6       0.57926    0.55910    0.71858   1.00
C6       0.42893    0.55354    0.72778   1.00
C6       0.60755    0.59208    0.65966   1.00
C6       0.39946    0.56419    0.79396   1.00
H2       0.64442    0.63735    0.71609   1.00
H2       0.35980    0.62328    0.75486   1.00
H2       0.62670    0.61194    0.75718   1.00
H2       0.37846    0.61347    0.70792   1.00
H2       0.65541    0.58747    0.72252   1.00
H2       0.35137    0.57765    0.73257   1.00
H2       0.60045    0.53563    0.71473   1.00
H2       0.40902    0.52901    0.72366   1.00
H2       0.57275    0.56109    0.74965   1.00
H2       0.43506    0.56580    0.69908   1.00
H2       0.55255    0.55096    0.70328   1.00
H2       0.45615    0.54230    0.73986   1.00
H2       0.61958    0.61886    0.64725   1.00
H2       0.38617    0.58485    0.81425   1.00
H2       0.62975    0.56937    0.65702   1.00
H2       0.37851    0.54072    0.78893   1.00
H2       0.58261    0.58334    0.64189   1.00
H2       0.42498    0.55149    0.80817   1.00
C4       0.98025    0.74990    0.74521   1.00
C4       1.02191    0.74863    0.74432   1.00
C3       0.95897    0.78547    0.74199   1.00
C3       1.04504    0.78218    0.73605   1.00
C3       0.95854    0.71452    0.74953   1.00
C3       1.04170    0.71267    0.75184   1.00
C2       0.89595    0.75230    0.74509   1.00
C2       1.10622    0.74654    0.74438   1.00
C3       0.91811    0.78670    0.74172   1.00
C3       1.08591    0.78129    0.73626   1.00
C3       0.91696    0.71700    0.74891   1.00
C3       1.08336    0.71305    0.75199   1.00
H1       0.97237    0.81188    0.74010   1.00
H1       1.03306    0.80844    0.72919   1.00
C5       0.97835    0.67799    0.75454   1.00
C5       1.01998    0.67757    0.75873   1.00
H1       0.90451    0.81328    0.73915   1.00
H1       1.10091    0.80653    0.73022   1.00
H1       0.90052    0.69245    0.75163   1.00
H1       1.09848    0.68812    0.75749   1.00
C6       0.95515    0.64039    0.75490   1.00
C6       1.04119    0.64071    0.77075   1.00
H2       0.93345    0.64135    0.73167   1.00
H2       1.06310    0.64800    0.79260   1.00
H2       0.97286    0.61560    0.74609   1.00
H2       1.02228    0.62106    0.78694   1.00
C6       0.93606    0.63136    0.79548   1.00
C6       1.05942    0.61808    0.73542   1.00
H2       0.92292    0.65794    0.80725   1.00
H2       1.07383    0.63870    0.71581   1.00
C6       0.90459    0.59829    0.79713   1.00
C6       1.08911    0.58465    0.74483   1.00
H2       0.95949    0.62389    0.81577   1.00
H2       1.03546    0.60568    0.71844   1.00
C6       0.86735    0.60946    0.77393   1.00
C6       1.12708    0.60076    0.76349   1.00
C6       0.92074    0.55910    0.78142   1.00
C6       1.07107    0.55354    0.77222   1.00
C6       0.89245    0.59208    0.84034   1.00
C6       1.10054    0.56419    0.70604   1.00
H2       0.85558    0.63735    0.78391   1.00
H2       1.14020    0.62328    0.74514   1.00
H2       0.87330    0.61194    0.74282   1.00
H2       1.12154    0.61347    0.79208   1.00
H2       0.84459    0.58747    0.77748   1.00
H2       1.14863    0.57765    0.76743   1.00
H2       0.89955    0.53563    0.78527   1.00
H2       1.09098    0.52901    0.77634   1.00
H2       0.92725    0.56109    0.75035   1.00
H2       1.06494    0.56580    0.80092   1.00
H2       0.94745    0.55096    0.79672   1.00
H2       1.04385    0.54230    0.76014   1.00
H2       0.88042    0.61886    0.85275   1.00
H2       1.11383    0.58485    0.68575   1.00
H2       0.87025    0.56937    0.84298   1.00
H2       1.12149    0.54072    0.71107   1.00
H2       0.91739    0.58334    0.85811   1.00
H2       1.07502    0.55149    0.69183   1.00
C4       0.75479    0.51975    0.74990   1.00
C4       0.75568    0.47809    0.74863   1.00
C3       0.75801    0.54103    0.78547   1.00
C3       0.76395    0.45496    0.78218   1.00
C3       0.75047    0.54146    0.71452   1.00
C3       0.74816    0.45830    0.71267   1.00
C2       0.75491    0.60405    0.75230   1.00
C2       0.75562    0.39378    0.74654   1.00
C3       0.75828    0.58189    0.78670   1.00
C3       0.76374    0.41409    0.78129   1.00
C3       0.75109    0.58304    0.71700   1.00
C3       0.74801    0.41664    0.71305   1.00
H1       0.75990    0.52763    0.81188   1.00
H1       0.77081    0.46694    0.80844   1.00
C5       0.74546    0.52165    0.67799   1.00
C5       0.74127    0.48002    0.67757   1.00
H1       0.76085    0.59549    0.81328   1.00
H1       0.76978    0.39909    0.80653   1.00
H1       0.74837    0.59948    0.69245   1.00
H1       0.74251    0.40152    0.68812   1.00
C6       0.74510    0.54485    0.64039   1.00
C6       0.72925    0.45881    0.64071   1.00
H2       0.76833    0.56655    0.64135   1.00
H2       0.70740    0.43690    0.64800   1.00
H2       0.75391    0.52714    0.61560   1.00
H2       0.71306    0.47772    0.62106   1.00
C6       0.70452    0.56394    0.63136   1.00
C6       0.76458    0.44058    0.61808   1.00
H2       0.69275    0.57708    0.65794   1.00
H2       0.78419    0.42617    0.63870   1.00
C6       0.70287    0.59541    0.59829   1.00
C6       0.75517    0.41089    0.58465   1.00
H2       0.68423    0.54051    0.62389   1.00
H2       0.78156    0.46454    0.60568   1.00
C6       0.72607    0.63265    0.60946   1.00
C6       0.73651    0.37292    0.60076   1.00
C6       0.71858    0.57926    0.55910   1.00
C6       0.72778    0.42893    0.55354   1.00
C6       0.65966    0.60755    0.59208   1.00
C6       0.79396    0.39946    0.56419   1.00
H2       0.71609    0.64442    0.63735   1.00
H2       0.75486    0.35980    0.62328   1.00
H2       0.75718    0.62670    0.61194   1.00
H2       0.70792    0.37846    0.61347   1.00
H2       0.72252    0.65541    0.58747   1.00
H2       0.73257    0.35137    0.57765   1.00
H2       0.71473    0.60045    0.53563   1.00
H2       0.72366    0.40902    0.52901   1.00
H2       0.74965    0.57275    0.56109   1.00
H2       0.69908    0.43506    0.56580   1.00
H2       0.70328    0.55255    0.55096   1.00
H2       0.73986    0.45615    0.54230   1.00
H2       0.64725    0.61958    0.61886   1.00
H2       0.81425    0.38617    0.58485   1.00
H2       0.65702    0.62975    0.56937   1.00
H2       0.78893    0.37851    0.54072   1.00
H2       0.64189    0.58261    0.58334   1.00
H2       0.80817    0.42498    0.55149   1.00
C4       0.74990    0.75479    0.51975   1.00
C4       0.74863    0.75568    0.47809   1.00
C3       0.78547    0.75801    0.54103   1.00
C3       0.78218    0.76395    0.45496   1.00
C3       0.71452    0.75047    0.54146   1.00
C3       0.71267    0.74816    0.45830   1.00
C2       0.75230    0.75491    0.60405   1.00
C2       0.74654    0.75562    0.39378   1.00
C3       0.78670    0.75828    0.58189   1.00
C3       0.78129    0.76374    0.41409   1.00
C3       0.71700    0.75109    0.58304   1.00
C3       0.71305    0.74801    0.41664   1.00
H1       0.81188    0.75990    0.52763   1.00
H1       0.80844    0.77081    0.46694   1.00
C5       0.67799    0.74546    0.52165   1.00
C5       0.67757    0.74127    0.48002   1.00
H1       0.81328    0.76085    0.59549   1.00
H1       0.80653    0.76978    0.39909   1.00
H1       0.69245    0.74837    0.59948   1.00
H1       0.68812    0.74251    0.40152   1.00
C6       0.64039    0.74510    0.54485   1.00
C6       0.64071    0.72925    0.45881   1.00
H2       0.64135    0.76833    0.56655   1.00
H2       0.64800    0.70740    0.43690   1.00
H2       0.61560    0.75391    0.52714   1.00
H2       0.62106    0.71306    0.47772   1.00
C6       0.63136    0.70452    0.56394   1.00
C6       0.61808    0.76458    0.44058   1.00
H2       0.65794    0.69275    0.57708   1.00
H2       0.63870    0.78419    0.42617   1.00
C6       0.59829    0.70287    0.59541   1.00
C6       0.58465    0.75517    0.41089   1.00
H2       0.62389    0.68423    0.54051   1.00
H2       0.60568    0.78156    0.46454   1.00
C6       0.60946    0.72607    0.63265   1.00
C6       0.60076    0.73651    0.37292   1.00
C6       0.55910    0.71858    0.57926   1.00
C6       0.55354    0.72778    0.42893   1.00
C6       0.59208    0.65966    0.60755   1.00
C6       0.56419    0.79396    0.39946   1.00
H2       0.63735    0.71609    0.64442   1.00
H2       0.62328    0.75486    0.35980   1.00
H2       0.61194    0.75718    0.62670   1.00
H2       0.61347    0.70792    0.37846   1.00
H2       0.58747    0.72252    0.65541   1.00
H2       0.57765    0.73257    0.35137   1.00
H2       0.53563    0.71473    0.60045   1.00
H2       0.52901    0.72366    0.40902   1.00
H2       0.56109    0.74965    0.57275   1.00
H2       0.56580    0.69908    0.43506   1.00
H2       0.55096    0.70328    0.55255   1.00
H2       0.54230    0.73986    0.45615   1.00
H2       0.61886    0.64725    0.61958   1.00
H2       0.58485    0.81425    0.38617   1.00
H2       0.56937    0.65702    0.62975   1.00
H2       0.54072    0.78893    0.37851   1.00
H2       0.58334    0.64189    0.58261   1.00
H2       0.55149    0.80817    0.42498   1.00
C4       0.24990    0.24521    0.98025   1.00
C4       0.24863    0.24432    1.02191   1.00
C3       0.28547    0.24199    0.95897   1.00
C3       0.28218    0.23605    1.04504   1.00
C3       0.21452    0.24953    0.95854   1.00
C3       0.21267    0.25184    1.04170   1.00
C2       0.25230    0.24509    0.89595   1.00
C2       0.24654    0.24438    1.10622   1.00
C3       0.28670    0.24172    0.91811   1.00
C3       0.28129    0.23626    1.08591   1.00
C3       0.21700    0.24891    0.91696   1.00
C3       0.21305    0.25199    1.08336   1.00
H1       0.31188    0.24010    0.97237   1.00
H1       0.30844    0.22919    1.03306   1.00
C5       0.17799    0.25454    0.97835   1.00
C5       0.17757    0.25873    1.01998   1.00
H1       0.31328    0.23915    0.90451   1.00
H1       0.30653    0.23022    1.10091   1.00
H1       0.19245    0.25163    0.90052   1.00
H1       0.18812    0.25749    1.09848   1.00
C6       0.14039    0.25490    0.95515   1.00
C6       0.14071    0.27075    1.04119   1.00
H2       0.14135    0.23167    0.93345   1.00
H2       0.14800    0.29260    1.06310   1.00
H2       0.11560    0.24609    0.97286   1.00
H2       0.12106    0.28694    1.02228   1.00
C6       0.13136    0.29548    0.93606   1.00
C6       0.11808    0.23542    1.05942   1.00
H2       0.15794    0.30725    0.92292   1.00
H2       0.13870    0.21581    1.07383   1.00
C6       0.09829    0.29713    0.90459   1.00
C6       0.08465    0.24483    1.08911   1.00
H2       0.12389    0.31577    0.95949   1.00
H2       0.10568    0.21844    1.03546   1.00
C6       0.10946    0.27393    0.86735   1.00
C6       0.10076    0.26349    1.12708   1.00
C6       0.05910    0.28142    0.92074   1.00
C6       0.05354    0.27222    1.07107   1.00
C6       0.09208    0.34034    0.89245   1.00
C6       0.06419    0.20604    1.10054   1.00
H2       0.13735    0.28391    0.85558   1.00
H2       0.12328    0.24514    1.14020   1.00
H2       0.11194    0.24282    0.87330   1.00
H2       0.11347    0.29208    1.12154   1.00
H2       0.08747    0.27748    0.84459   1.00
H2       0.07765    0.26743    1.14863   1.00
H2       0.03563    0.28527    0.89955   1.00
H2       0.02901    0.27634    1.09098   1.00
H2       0.06109    0.25035    0.92725   1.00
H2       0.06580    0.30092    1.06494   1.00
H2       0.05096    0.29672    0.94745   1.00
H2       0.04230    0.26014    1.04385   1.00
H2       0.11886    0.35275    0.88042   1.00
H2       0.08485    0.18575    1.11383   1.00
H2       0.06937    0.34298    0.87025   1.00
H2       0.04072    0.21107    1.12149   1.00
H2       0.08334    0.35811    0.91739   1.00
H2       0.05149    0.19183    1.07502   1.00
C4       0.24521    0.48025    0.74990   1.00
C4       0.24432    0.52191    0.74863   1.00
C3       0.24199    0.45897    0.78547   1.00
C3       0.23605    0.54504    0.78218   1.00
C3       0.24953    0.45854    0.71452   1.00
C3       0.25184    0.54170    0.71267   1.00
C2       0.24509    0.39595    0.75230   1.00
C2       0.24438    0.60622    0.74654   1.00
C3       0.24172    0.41811    0.78670   1.00
C3       0.23626    0.58591    0.78129   1.00
C3       0.24891    0.41696    0.71700   1.00
C3       0.25199    0.58336    0.71305   1.00
H1       0.24010    0.47237    0.81188   1.00
H1       0.22919    0.53306    0.80844   1.00
C5       0.25454    0.47835    0.67799   1.00
C5       0.25873    0.51998    0.67757   1.00
H1       0.23915    0.40451    0.81328   1.00
H1       0.23022    0.60091    0.80653   1.00
H1       0.25163    0.40052    0.69245   1.00
H1       0.25749    0.59848    0.68812   1.00
C6       0.25490    0.45515    0.64039   1.00
C6       0.27075    0.54119    0.64071   1.00
H2       0.23167    0.43345    0.64135   1.00
H2       0.29260    0.56310    0.64800   1.00
H2       0.24609    0.47286    0.61560   1.00
H2       0.28694    0.52228    0.62106   1.00
C6       0.29548    0.43606    0.63136   1.00
C6       0.23542    0.55942    0.61808   1.00
H2       0.30725    0.42292    0.65794   1.00
H2       0.21581    0.57383    0.63870   1.00
C6       0.29713    0.40459    0.59829   1.00
C6       0.24483    0.58911    0.58465   1.00
H2       0.31577    0.45949    0.62389   1.00
H2       0.21844    0.53546    0.60568   1.00
C6       0.27393    0.36735    0.60946   1.00
C6       0.26349    0.62708    0.60076   1.00
C6       0.28142    0.42074    0.55910   1.00
C6       0.27222    0.57107    0.55354   1.00
C6       0.34034    0.39245    0.59208   1.00
C6       0.20604    0.60054    0.56419   1.00
H2       0.28391    0.35558    0.63735   1.00
H2       0.24514    0.64020    0.62328   1.00
H2       0.24282    0.37330    0.61194   1.00
H2       0.29208    0.62154    0.61347   1.00
H2       0.27748    0.34459    0.58747   1.00
H2       0.26743    0.64863    0.57765   1.00
H2       0.28527    0.39955    0.53563   1.00
H2       0.27634    0.59098    0.52901   1.00
H2       0.25035    0.42725    0.56109   1.00
H2       0.30092    0.56494    0.56580   1.00
H2       0.29672    0.44745    0.55096   1.00
H2       0.26014    0.54385    0.54230   1.00
H2       0.35275    0.38042    0.61886   1.00
H2       0.18575    0.61383    0.58485   1.00
H2       0.34298    0.37025    0.56937   1.00
H2       0.21107    0.62149    0.54072   1.00
H2       0.35811    0.41739    0.58334   1.00
H2       0.19183    0.57502    0.55149   1.00
C4       0.01975    0.24990    0.75479   1.00
C4       -0.02191   0.24863    0.75568   1.00
C3       0.04103    0.28547    0.75801   1.00
C3       -0.04504   0.28218    0.76395   1.00
C3       0.04146    0.21452    0.75047   1.00
C3       -0.04170   0.21267    0.74816   1.00
C2       0.10405    0.25230    0.75491   1.00
C2       -0.10622   0.24654    0.75562   1.00
C3       0.08189    0.28670    0.75828   1.00
C3       -0.08591   0.28129    0.76374   1.00
C3       0.08304    0.21700    0.75109   1.00
C3       -0.08336   0.21305    0.74801   1.00
H1       0.02763    0.31188    0.75990   1.00
H1       -0.03306   0.30844    0.77081   1.00
C5       0.02165    0.17799    0.74546   1.00
C5       -0.01998   0.17757    0.74127   1.00
H1       0.09549    0.31328    0.76085   1.00
H1       -0.10091   0.30653    0.76978   1.00
H1       0.09948    0.19245    0.74837   1.00
H1       -0.09848   0.18812    0.74251   1.00
C6       0.04485    0.14039    0.74510   1.00
C6       -0.04119   0.14071    0.72925   1.00
H2       0.06655    0.14135    0.76833   1.00
H2       -0.06310   0.14800    0.70740   1.00
H2       0.02714    0.11560    0.75391   1.00
H2       -0.02228   0.12106    0.71306   1.00
C6       0.06394    0.13136    0.70452   1.00
C6       -0.05942   0.11808    0.76458   1.00
H2       0.07708    0.15794    0.69275   1.00
H2       -0.07383   0.13870    0.78419   1.00
C6       0.09541    0.09829    0.70287   1.00
C6       -0.08911   0.08465    0.75517   1.00
H2       0.04051    0.12389    0.68423   1.00
H2       -0.03546   0.10568    0.78156   1.00
C6       0.13265    0.10946    0.72607   1.00
C6       -0.12708   0.10076    0.73651   1.00
C6       0.07926    0.05910    0.71858   1.00
C6       -0.07107   0.05354    0.72778   1.00
C6       0.10755    0.09208    0.65966   1.00
C6       -0.10054   0.06419    0.79396   1.00
H2       0.14442    0.13735    0.71609   1.00
H2       -0.14020   0.12328    0.75486   1.00
H2       0.12670    0.11194    0.75718   1.00
H2       -0.12154   0.11347    0.70792   1.00
H2       0.15541    0.08747    0.72252   1.00
H2       -0.14863   0.07765    0.73257   1.00
H2       0.10045    0.03563    0.71473   1.00
H2       -0.09098   0.02901    0.72366   1.00
H2       0.07275    0.06109    0.74965   1.00
H2       -0.06494   0.06580    0.69908   1.00
H2       0.05255    0.05096    0.70328   1.00
H2       -0.04385   0.04230    0.73986   1.00
H2       0.11958    0.11886    0.64725   1.00
H2       -0.11383   0.08485    0.81425   1.00
H2       0.12975    0.06937    0.65702   1.00
H2       -0.12149   0.04072    0.78893   1.00
H2       0.08261    0.08334    0.64189   1.00
H2       -0.07502   0.05149    0.80817   1.00
C4       0.48025    0.24990    0.74521   1.00
C4       0.52191    0.24863    0.74432   1.00
C3       0.45897    0.28547    0.74199   1.00
C3       0.54504    0.28218    0.73605   1.00
C3       0.45854    0.21452    0.74953   1.00
C3       0.54170    0.21267    0.75184   1.00
C2       0.39595    0.25230    0.74509   1.00
C2       0.60622    0.24654    0.74438   1.00
C3       0.41811    0.28670    0.74172   1.00
C3       0.58591    0.28129    0.73626   1.00
C3       0.41696    0.21700    0.74891   1.00
C3       0.58336    0.21305    0.75199   1.00
H1       0.47237    0.31188    0.74010   1.00
H1       0.53306    0.30844    0.72919   1.00
C5       0.47835    0.17799    0.75454   1.00
C5       0.51998    0.17757    0.75873   1.00
H1       0.40451    0.31328    0.73915   1.00
H1       0.60091    0.30653    0.73022   1.00
H1       0.40052    0.19245    0.75163   1.00
H1       0.59848    0.18812    0.75749   1.00
C6       0.45515    0.14039    0.75490   1.00
C6       0.54119    0.14071    0.77075   1.00
H2       0.43345    0.14135    0.73167   1.00
H2       0.56310    0.14800    0.79260   1.00
H2       0.47286    0.11560    0.74609   1.00
H2       0.52228    0.12106    0.78694   1.00
C6       0.43606    0.13136    0.79548   1.00
C6       0.55942    0.11808    0.73542   1.00
H2       0.42292    0.15794    0.80725   1.00
H2       0.57383    0.13870    0.71581   1.00
C6       0.40459    0.09829    0.79713   1.00
C6       0.58911    0.08465    0.74483   1.00
H2       0.45949    0.12389    0.81577   1.00
H2       0.53546    0.10568    0.71844   1.00
C6       0.36735    0.10946    0.77393   1.00
C6       0.62708    0.10076    0.76349   1.00
C6       0.42074    0.05910    0.78142   1.00
C6       0.57107    0.05354    0.77222   1.00
C6       0.39245    0.09208    0.84034   1.00
C6       0.60054    0.06419    0.70604   1.00
H2       0.35558    0.13735    0.78391   1.00
H2       0.64020    0.12328    0.74514   1.00
H2       0.37330    0.11194    0.74282   1.00
H2       0.62154    0.11347    0.79208   1.00
H2       0.34459    0.08747    0.77748   1.00
H2       0.64863    0.07765    0.76743   1.00
H2       0.39955    0.03563    0.78527   1.00
H2       0.59098    0.02901    0.77634   1.00
H2       0.42725    0.06109    0.75035   1.00
H2       0.56494    0.06580    0.80092   1.00
H2       0.44745    0.05096    0.79672   1.00
H2       0.54385    0.04230    0.76014   1.00
H2       0.38042    0.11886    0.85275   1.00
H2       0.61383    0.08485    0.68575   1.00
H2       0.37025    0.06937    0.84298   1.00
H2       0.62149    0.04072    0.71107   1.00
H2       0.41739    0.08334    0.85811   1.00
H2       0.57502    0.05149    0.69183   1.00
C4       0.25479    0.01975    0.74990   1.00
C4       0.25568    -0.02191   0.74863   1.00
C3       0.25801    0.04103    0.78547   1.00
C3       0.26395    -0.04504   0.78218   1.00
C3       0.25047    0.04146    0.71452   1.00
C3       0.24816    -0.04170   0.71267   1.00
C2       0.25491    0.10405    0.75230   1.00
C2       0.25562    -0.10622   0.74654   1.00
C3       0.25828    0.08189    0.78670   1.00
C3       0.26374    -0.08591   0.78129   1.00
C3       0.25109    0.08304    0.71700   1.00
C3       0.24801    -0.08336   0.71305   1.00
H1       0.25990    0.02763    0.81188   1.00
H1       0.27081    -0.03306   0.80844   1.00
C5       0.24546    0.02165    0.67799   1.00
C5       0.24127    -0.01998   0.67757   1.00
H1       0.26085    0.09549    0.81328   1.00
H1       0.26978    -0.10091   0.80653   1.00
H1       0.24837    0.09948    0.69245   1.00
H1       0.24251    -0.09848   0.68812   1.00
C6       0.24510    0.04485    0.64039   1.00
C6       0.22925    -0.04119   0.64071   1.00
H2       0.26833    0.06655    0.64135   1.00
H2       0.20740    -0.06310   0.64800   1.00
H2       0.25391    0.02714    0.61560   1.00
H2       0.21306    -0.02228   0.62106   1.00
C6       0.20452    0.06394    0.63136   1.00
C6       0.26458    -0.05942   0.61808   1.00
H2       0.19275    0.07708    0.65794   1.00
H2       0.28419    -0.07383   0.63870   1.00
C6       0.20287    0.09541    0.59829   1.00
C6       0.25517    -0.08911   0.58465   1.00
H2       0.18423    0.04051    0.62389   1.00
H2       0.28156    -0.03546   0.60568   1.00
C6       0.22607    0.13265    0.60946   1.00
C6       0.23651    -0.12708   0.60076   1.00
C6       0.21858    0.07926    0.55910   1.00
C6       0.22778    -0.07107   0.55354   1.00
C6       0.15966    0.10755    0.59208   1.00
C6       0.29396    -0.10054   0.56419   1.00
H2       0.21609    0.14442    0.63735   1.00
H2       0.25486    -0.14020   0.62328   1.00
H2       0.25718    0.12670    0.61194   1.00
H2       0.20792    -0.12154   0.61347   1.00
H2       0.22252    0.15541    0.58747   1.00
H2       0.23257    -0.14863   0.57765   1.00
H2       0.21473    0.10045    0.53563   1.00
H2       0.22366    -0.09098   0.52901   1.00
H2       0.24965    0.07275    0.56109   1.00
H2       0.19908    -0.06494   0.56580   1.00
H2       0.20328    0.05255    0.55096   1.00
H2       0.23986    -0.04385   0.54230   1.00
H2       0.14725    0.11958    0.61886   1.00
H2       0.31425    -0.11383   0.58485   1.00
H2       0.15702    0.12975    0.56937   1.00
H2       0.28893    -0.12149   0.54072   1.00
H2       0.14189    0.08261    0.58334   1.00
H2       0.30817    -0.07502   0.55149   1.00
C4       0.24990    0.25479    0.51975   1.00
C4       0.24863    0.25568    0.47809   1.00
C3       0.28547    0.25801    0.54103   1.00
C3       0.28218    0.26395    0.45496   1.00
C3       0.21452    0.25047    0.54146   1.00
C3       0.21267    0.24816    0.45830   1.00
C2       0.25230    0.25491    0.60405   1.00
C2       0.24654    0.25562    0.39378   1.00
C3       0.28670    0.25828    0.58189   1.00
C3       0.28129    0.26374    0.41409   1.00
C3       0.21700    0.25109    0.58304   1.00
C3       0.21305    0.24801    0.41664   1.00
H1       0.31188    0.25990    0.52763   1.00
H1       0.30844    0.27081    0.46694   1.00
C5       0.17799    0.24546    0.52165   1.00
C5       0.17757    0.24127    0.48002   1.00
H1       0.31328    0.26085    0.59549   1.00
H1       0.30653    0.26978    0.39909   1.00
H1       0.19245    0.24837    0.59948   1.00
H1       0.18812    0.24251    0.40152   1.00
C6       0.14039    0.24510    0.54485   1.00
C6       0.14071    0.22925    0.45881   1.00
H2       0.14135    0.26833    0.56655   1.00
H2       0.14800    0.20740    0.43690   1.00
H2       0.11560    0.25391    0.52714   1.00
H2       0.12106    0.21306    0.47772   1.00
C6       0.13136    0.20452    0.56394   1.00
C6       0.11808    0.26458    0.44058   1.00
H2       0.15794    0.19275    0.57708   1.00
H2       0.13870    0.28419    0.42617   1.00
C6       0.09829    0.20287    0.59541   1.00
C6       0.08465    0.25517    0.41089   1.00
H2       0.12389    0.18423    0.54051   1.00
H2       0.10568    0.28156    0.46454   1.00
C6       0.10946    0.22607    0.63265   1.00
C6       0.10076    0.23651    0.37292   1.00
C6       0.05910    0.21858    0.57926   1.00
C6       0.05354    0.22778    0.42893   1.00
C6       0.09208    0.15966    0.60755   1.00
C6       0.06419    0.29396    0.39946   1.00
H2       0.13735    0.21609    0.64442   1.00
H2       0.12328    0.25486    0.35980   1.00
H2       0.11194    0.25718    0.62670   1.00
H2       0.11347    0.20792    0.37846   1.00
H2       0.08747    0.22252    0.65541   1.00
H2       0.07765    0.23257    0.35137   1.00
H2       0.03563    0.21473    0.60045   1.00
H2       0.02901    0.22366    0.40902   1.00
H2       0.06109    0.24965    0.57275   1.00
H2       0.06580    0.19908    0.43506   1.00
H2       0.05096    0.20328    0.55255   1.00
H2       0.04230    0.23986    0.45615   1.00
H2       0.11886    0.14725    0.61958   1.00
H2       0.08485    0.31425    0.38617   1.00
H2       0.06937    0.15702    0.62975   1.00
H2       0.04072    0.28893    0.37851   1.00
H2       0.08334    0.14189    0.58261   1.00
H2       0.05149    0.30817    0.42498   1.00
C4       0.24990    0.74521    0.48025   1.00
C4       0.24863    0.74432    0.52191   1.00
C3       0.28547    0.74199    0.45897   1.00
C3       0.28218    0.73605    0.54504   1.00
C3       0.21452    0.74953    0.45854   1.00
C3       0.21267    0.75184    0.54170   1.00
C2       0.25230    0.74509    0.39595   1.00
C2       0.24654    0.74438    0.60622   1.00
C3       0.28670    0.74172    0.41811   1.00
C3       0.28129    0.73626    0.58591   1.00
C3       0.21700    0.74891    0.41696   1.00
C3       0.21305    0.75199    0.58336   1.00
H1       0.31188    0.74010    0.47237   1.00
H1       0.30844    0.72919    0.53306   1.00
C5       0.17799    0.75454    0.47835   1.00
C5       0.17757    0.75873    0.51998   1.00
H1       0.31328    0.73915    0.40451   1.00
H1       0.30653    0.73022    0.60091   1.00
H1       0.19245    0.75163    0.40052   1.00
H1       0.18812    0.75749    0.59848   1.00
C6       0.14039    0.75490    0.45515   1.00
C6       0.14071    0.77075    0.54119   1.00
H2       0.14135    0.73167    0.43345   1.00
H2       0.14800    0.79260    0.56310   1.00
H2       0.11560    0.74609    0.47286   1.00
H2       0.12106    0.78694    0.52228   1.00
C6       0.13136    0.79548    0.43606   1.00
C6       0.11808    0.73542    0.55942   1.00
H2       0.15794    0.80725    0.42292   1.00
H2       0.13870    0.71581    0.57383   1.00
C6       0.09829    0.79713    0.40459   1.00
C6       0.08465    0.74483    0.58911   1.00
H2       0.12389    0.81577    0.45949   1.00
H2       0.10568    0.71844    0.53546   1.00
C6       0.10946    0.77393    0.36735   1.00
C6       0.10076    0.76349    0.62708   1.00
C6       0.05910    0.78142    0.42074   1.00
C6       0.05354    0.77222    0.57107   1.00
C6       0.09208    0.84034    0.39245   1.00
C6       0.06419    0.70604    0.60054   1.00
H2       0.13735    0.78391    0.35558   1.00
H2       0.12328    0.74514    0.64020   1.00
H2       0.11194    0.74282    0.37330   1.00
H2       0.11347    0.79208    0.62154   1.00
H2       0.08747    0.77748    0.34459   1.00
H2       0.07765    0.76743    0.64863   1.00
H2       0.03563    0.78527    0.39955   1.00
H2       0.02901    0.77634    0.59098   1.00
H2       0.06109    0.75035    0.42725   1.00
H2       0.06580    0.80092    0.56494   1.00
H2       0.05096    0.79672    0.44745   1.00
H2       0.04230    0.76014    0.54385   1.00
H2       0.11886    0.85275    0.38042   1.00
H2       0.08485    0.68575    0.61383   1.00
H2       0.06937    0.84298    0.37025   1.00
H2       0.04072    0.71107    0.62149   1.00
H2       0.08334    0.85811    0.41739   1.00
H2       0.05149    0.69183    0.57502   1.00
C4       0.24521    0.98025    0.24990   1.00
C4       0.24432    1.02191    0.24863   1.00
C3       0.24199    0.95897    0.28547   1.00
C3       0.23605    1.04504    0.28218   1.00
C3       0.24953    0.95854    0.21452   1.00
C3       0.25184    1.04170    0.21267   1.00
C2       0.24509    0.89595    0.25230   1.00
C2       0.24438    1.10622    0.24654   1.00
C3       0.24172    0.91811    0.28670   1.00
C3       0.23626    1.08591    0.28129   1.00
C3       0.24891    0.91696    0.21700   1.00
C3       0.25199    1.08336    0.21305   1.00
H1       0.24010    0.97237    0.31188   1.00
H1       0.22919    1.03306    0.30844   1.00
C5       0.25454    0.97835    0.17799   1.00
C5       0.25873    1.01998    0.17757   1.00
H1       0.23915    0.90451    0.31328   1.00
H1       0.23022    1.10091    0.30653   1.00
H1       0.25163    0.90052    0.19245   1.00
H1       0.25749    1.09848    0.18812   1.00
C6       0.25490    0.95515    0.14039   1.00
C6       0.27075    1.04119    0.14071   1.00
H2       0.23167    0.93345    0.14135   1.00
H2       0.29260    1.06310    0.14800   1.00
H2       0.24609    0.97286    0.11560   1.00
H2       0.28694    1.02228    0.12106   1.00
C6       0.29548    0.93606    0.13136   1.00
C6       0.23542    1.05942    0.11808   1.00
H2       0.30725    0.92292    0.15794   1.00
H2       0.21581    1.07383    0.13870   1.00
C6       0.29713    0.90459    0.09829   1.00
C6       0.24483    1.08911    0.08465   1.00
H2       0.31577    0.95949    0.12389   1.00
H2       0.21844    1.03546    0.10568   1.00
C6       0.27393    0.86735    0.10946   1.00
C6       0.26349    1.12708    0.10076   1.00
C6       0.28142    0.92074    0.05910   1.00
C6       0.27222    1.07107    0.05354   1.00
C6       0.34034    0.89245    0.09208   1.00
C6       0.20604    1.10054    0.06419   1.00
H2       0.28391    0.85558    0.13735   1.00
H2       0.24514    1.14020    0.12328   1.00
H2       0.24282    0.87330    0.11194   1.00
H2       0.29208    1.12154    0.11347   1.00
H2       0.27748    0.84459    0.08747   1.00
H2       0.26743    1.14863    0.07765   1.00
H2       0.28527    0.89955    0.03563   1.00
H2       0.27634    1.09098    0.02901   1.00
H2       0.25035    0.92725    0.06109   1.00
H2       0.30092    1.06494    0.06580   1.00
H2       0.29672    0.94745    0.05096   1.00
H2       0.26014    1.04385    0.04230   1.00
H2       0.35275    0.88042    0.11886   1.00
H2       0.18575    1.11383    0.08485   1.00
H2       0.34298    0.87025    0.06937   1.00
H2       0.21107    1.12149    0.04072   1.00
H2       0.35811    0.91739    0.08334   1.00
H2       0.19183    1.07502    0.05149   1.00
C4       0.01975    0.74990    0.25479   1.00
C4       -0.02191   0.74863    0.25568   1.00
C3       0.04103    0.78547    0.25801   1.00
C3       -0.04504   0.78218    0.26395   1.00
C3       0.04146    0.71452    0.25047   1.00
C3       -0.04170   0.71267    0.24816   1.00
C2       0.10405    0.75230    0.25491   1.00
C2       -0.10622   0.74654    0.25562   1.00
C3       0.08189    0.78670    0.25828   1.00
C3       -0.08591   0.78129    0.26374   1.00
C3       0.08304    0.71700    0.25109   1.00
C3       -0.08336   0.71305    0.24801   1.00
H1       0.02763    0.81188    0.25990   1.00
H1       -0.03306   0.80844    0.27081   1.00
C5       0.02165    0.67799    0.24546   1.00
C5       -0.01998   0.67757    0.24127   1.00
H1       0.09549    0.81328    0.26085   1.00
H1       -0.10091   0.80653    0.26978   1.00
H1       0.09948    0.69245    0.24837   1.00
H1       -0.09848   0.68812    0.24251   1.00
C6       0.04485    0.64039    0.24510   1.00
C6       -0.04119   0.64071    0.22925   1.00
H2       0.06655    0.64135    0.26833   1.00
H2       -0.06310   0.64800    0.20740   1.00
H2       0.02714    0.61560    0.25391   1.00
H2       -0.02228   0.62106    0.21306   1.00
C6       0.06394    0.63136    0.20452   1.00
C6       -0.05942   0.61808    0.26458   1.00
H2       0.07708    0.65794    0.19275   1.00
H2       -0.07383   0.63870    0.28419   1.00
C6       0.09541    0.59829    0.20287   1.00
C6       -0.08911   0.58465    0.25517   1.00
H2       0.04051    0.62389    0.18423   1.00
H2       -0.03546   0.60568    0.28156   1.00
C6       0.13265    0.60946    0.22607   1.00
C6       -0.12708   0.60076    0.23651   1.00
C6       0.07926    0.55910    0.21858   1.00
C6       -0.07107   0.55354    0.22778   1.00
C6       0.10755    0.59208    0.15966   1.00
C6       -0.10054   0.56419    0.29396   1.00
H2       0.14442    0.63735    0.21609   1.00
H2       -0.14020   0.62328    0.25486   1.00
H2       0.12670    0.61194    0.25718   1.00
H2       -0.12154   0.61347    0.20792   1.00
H2       0.15541    0.58747    0.22252   1.00
H2       -0.14863   0.57765    0.23257   1.00
H2       0.10045    0.53563    0.21473   1.00
H2       -0.09098   0.52901    0.22366   1.00
H2       0.07275    0.56109    0.24965   1.00
H2       -0.06494   0.56580    0.19908   1.00
H2       0.05255    0.55096    0.20328   1.00
H2       -0.04385   0.54230    0.23986   1.00
H2       0.11958    0.61886    0.14725   1.00
H2       -0.11383   0.58485    0.31425   1.00
H2       0.12975    0.56937    0.15702   1.00
H2       -0.12149   0.54072    0.28893   1.00
H2       0.08261    0.58334    0.14189   1.00
H2       -0.07502   0.55149    0.30817   1.00
C4       0.48025    0.74990    0.24521   1.00
C4       0.52191    0.74863    0.24432   1.00
C3       0.45897    0.78547    0.24199   1.00
C3       0.54504    0.78218    0.23605   1.00
C3       0.45854    0.71452    0.24953   1.00
C3       0.54170    0.71267    0.25184   1.00
C2       0.39595    0.75230    0.24509   1.00
C2       0.60622    0.74654    0.24438   1.00
C3       0.41811    0.78670    0.24172   1.00
C3       0.58591    0.78129    0.23626   1.00
C3       0.41696    0.71700    0.24891   1.00
C3       0.58336    0.71305    0.25199   1.00
H1       0.47237    0.81188    0.24010   1.00
H1       0.53306    0.80844    0.22919   1.00
C5       0.47835    0.67799    0.25454   1.00
C5       0.51998    0.67757    0.25873   1.00
H1       0.40451    0.81328    0.23915   1.00
H1       0.60091    0.80653    0.23022   1.00
H1       0.40052    0.69245    0.25163   1.00
H1       0.59848    0.68812    0.25749   1.00
C6       0.45515    0.64039    0.25490   1.00
C6       0.54119    0.64071    0.27075   1.00
H2       0.43345    0.64135    0.23167   1.00
H2       0.56310    0.64800    0.29260   1.00
H2       0.47286    0.61560    0.24609   1.00
H2       0.52228    0.62106    0.28694   1.00
C6       0.43606    0.63136    0.29548   1.00
C6       0.55942    0.61808    0.23542   1.00
H2       0.42292    0.65794    0.30725   1.00
H2       0.57383    0.63870    0.21581   1.00
C6       0.40459    0.59829    0.29713   1.00
C6       0.58911    0.58465    0.24483   1.00
H2       0.45949    0.62389    0.31577   1.00
H2       0.53546    0.60568    0.21844   1.00
C6       0.36735    0.60946    0.27393   1.00
C6       0.62708    0.60076    0.26349   1.00
C6       0.42074    0.55910    0.28142   1.00
C6       0.57107    0.55354    0.27222   1.00
C6       0.39245    0.59208    0.34034   1.00
C6       0.60054    0.56419    0.20604   1.00
H2       0.35558    0.63735    0.28391   1.00
H2       0.64020    0.62328    0.24514   1.00
H2       0.37330    0.61194    0.24282   1.00
H2       0.62154    0.61347    0.29208   1.00
H2       0.34459    0.58747    0.27748   1.00
H2       0.64863    0.57765    0.26743   1.00
H2       0.39955    0.53563    0.28527   1.00
H2       0.59098    0.52901    0.27634   1.00
H2       0.42725    0.56109    0.25035   1.00
H2       0.56494    0.56580    0.30092   1.00
H2       0.44745    0.55096    0.29672   1.00
H2       0.54385    0.54230    0.26014   1.00
H2       0.38042    0.61886    0.35275   1.00
H2       0.61383    0.58485    0.18575   1.00
H2       0.37025    0.56937    0.34298   1.00
H2       0.62149    0.54072    0.21107   1.00
H2       0.41739    0.58334    0.35811   1.00
H2       0.57502    0.55149    0.19183   1.00
C4       0.25479    0.51975    0.24990   1.00
C4       0.25568    0.47809    0.24863   1.00
C3       0.25801    0.54103    0.28547   1.00
C3       0.26395    0.45496    0.28218   1.00
C3       0.25047    0.54146    0.21452   1.00
C3       0.24816    0.45830    0.21267   1.00
C2       0.25491    0.60405    0.25230   1.00
C2       0.25562    0.39378    0.24654   1.00
C3       0.25828    0.58189    0.28670   1.00
C3       0.26374    0.41409    0.28129   1.00
C3       0.25109    0.58304    0.21700   1.00
C3       0.24801    0.41664    0.21305   1.00
H1       0.25990    0.52763    0.31188   1.00
H1       0.27081    0.46694    0.30844   1.00
C5       0.24546    0.52165    0.17799   1.00
C5       0.24127    0.48002    0.17757   1.00
H1       0.26085    0.59549    0.31328   1.00
H1       0.26978    0.39909    0.30653   1.00
H1       0.24837    0.59948    0.19245   1.00
H1       0.24251    0.40152    0.18812   1.00
C6       0.24510    0.54485    0.14039   1.00
C6       0.22925    0.45881    0.14071   1.00
H2       0.26833    0.56655    0.14135   1.00
H2       0.20740    0.43690    0.14800   1.00
H2       0.25391    0.52714    0.11560   1.00
H2       0.21306    0.47772    0.12106   1.00
C6       0.20452    0.56394    0.13136   1.00
C6       0.26458    0.44058    0.11808   1.00
H2       0.19275    0.57708    0.15794   1.00
H2       0.28419    0.42617    0.13870   1.00
C6       0.20287    0.59541    0.09829   1.00
C6       0.25517    0.41089    0.08465   1.00
H2       0.18423    0.54051    0.12389   1.00
H2       0.28156    0.46454    0.10568   1.00
C6       0.22607    0.63265    0.10946   1.00
C6       0.23651    0.37292    0.10076   1.00
C6       0.21858    0.57926    0.05910   1.00
C6       0.22778    0.42893    0.05354   1.00
C6       0.15966    0.60755    0.09208   1.00
C6       0.29396    0.39946    0.06419   1.00
H2       0.21609    0.64442    0.13735   1.00
H2       0.25486    0.35980    0.12328   1.00
H2       0.25718    0.62670    0.11194   1.00
H2       0.20792    0.37846    0.11347   1.00
H2       0.22252    0.65541    0.08747   1.00
H2       0.23257    0.35137    0.07765   1.00
H2       0.21473    0.60045    0.03563   1.00
H2       0.22366    0.40902    0.02901   1.00
H2       0.24965    0.57275    0.06109   1.00
H2       0.19908    0.43506    0.06580   1.00
H2       0.20328    0.55255    0.05096   1.00
H2       0.23986    0.45615    0.04230   1.00
H2       0.14725    0.61958    0.11886   1.00
H2       0.31425    0.38617    0.08485   1.00
H2       0.15702    0.62975    0.06937   1.00
H2       0.28893    0.37851    0.04072   1.00
H2       0.14189    0.58261    0.08334   1.00
H2       0.30817    0.42498    0.05149   1.00
C4       0.24990    0.75479    0.01975   1.00
C4       0.24863    0.75568    -0.02191   1.00
C3       0.28547    0.75801    0.04103   1.00
C3       0.28218    0.76395    -0.04504   1.00
C3       0.21452    0.75047    0.04146   1.00
C3       0.21267    0.74816    -0.04170   1.00
C2       0.25230    0.75491    0.10405   1.00
C2       0.24654    0.75562    -0.10622   1.00
C3       0.28670    0.75828    0.08189   1.00
C3       0.28129    0.76374    -0.08591   1.00
C3       0.21700    0.75109    0.08304   1.00
C3       0.21305    0.74801    -0.08336   1.00
H1       0.31188    0.75990    0.02763   1.00
H1       0.30844    0.77081    -0.03306   1.00
C5       0.17799    0.74546    0.02165   1.00
C5       0.17757    0.74127    -0.01998   1.00
H1       0.31328    0.76085    0.09549   1.00
H1       0.30653    0.76978    -0.10091   1.00
H1       0.19245    0.74837    0.09948   1.00
H1       0.18812    0.74251    -0.09848   1.00
C6       0.14039    0.74510    0.04485   1.00
C6       0.14071    0.72925    -0.04119   1.00
H2       0.14135    0.76833    0.06655   1.00
H2       0.14800    0.70740    -0.06310   1.00
H2       0.11560    0.75391    0.02714   1.00
H2       0.12106    0.71306    -0.02228   1.00
C6       0.13136    0.70452    0.06394   1.00
C6       0.11808    0.76458    -0.05942   1.00
H2       0.15794    0.69275    0.07708   1.00
H2       0.13870    0.78419    -0.07383   1.00
C6       0.09829    0.70287    0.09541   1.00
C6       0.08465    0.75517    -0.08911   1.00
H2       0.12389    0.68423    0.04051   1.00
H2       0.10568    0.78156    -0.03546   1.00
C6       0.10946    0.72607    0.13265   1.00
C6       0.10076    0.73651    -0.12708   1.00
C6       0.05910    0.71858    0.07926   1.00
C6       0.05354    0.72778    -0.07107   1.00
C6       0.09208    0.65966    0.10755   1.00
C6       0.06419    0.79396    -0.10054   1.00
H2       0.13735    0.71609    0.14442   1.00
H2       0.12328    0.75486    -0.14020   1.00
H2       0.11194    0.75718    0.12670   1.00
H2       0.11347    0.70792    -0.12154   1.00
H2       0.08747    0.72252    0.15541   1.00
H2       0.07765    0.73257    -0.14863   1.00
H2       0.03563    0.71473    0.10045   1.00
H2       0.02901    0.72366    -0.09098   1.00
H2       0.06109    0.74965    0.07275   1.00
H2       0.06580    0.69908    -0.06494   1.00
H2       0.05096    0.70328    0.05255   1.00
H2       0.04230    0.73986    -0.04385   1.00
H2       0.11886    0.64725    0.11958   1.00
H2       0.08485    0.81425    -0.11383   1.00
H2       0.06937    0.65702    0.12975   1.00
H2       0.04072    0.78893    -0.12149   1.00
H2       0.08334    0.64189    0.08261   1.00
H2       0.05149    0.80817    -0.07502   1.00
C4       0.74990    0.24521    0.48025   1.00
C4       0.74863    0.24432    0.52191   1.00
C3       0.78547    0.24199    0.45897   1.00
C3       0.78218    0.23605    0.54504   1.00
C3       0.71452    0.24953    0.45854   1.00
C3       0.71267    0.25184    0.54170   1.00
C2       0.75230    0.24509    0.39595   1.00
C2       0.74654    0.24438    0.60622   1.00
C3       0.78670    0.24172    0.41811   1.00
C3       0.78129    0.23626    0.58591   1.00
C3       0.71700    0.24891    0.41696   1.00
C3       0.71305    0.25199    0.58336   1.00
H1       0.81188    0.24010    0.47237   1.00
H1       0.80844    0.22919    0.53306   1.00
C5       0.67799    0.25454    0.47835   1.00
C5       0.67757    0.25873    0.51998   1.00
H1       0.81328    0.23915    0.40451   1.00
H1       0.80653    0.23022    0.60091   1.00
H1       0.69245    0.25163    0.40052   1.00
H1       0.68812    0.25749    0.59848   1.00
C6       0.64039    0.25490    0.45515   1.00
C6       0.64071    0.27075    0.54119   1.00
H2       0.64135    0.23167    0.43345   1.00
H2       0.64800    0.29260    0.56310   1.00
H2       0.61560    0.24609    0.47286   1.00
H2       0.62106    0.28694    0.52228   1.00
C6       0.63136    0.29548    0.43606   1.00
C6       0.61808    0.23542    0.55942   1.00
H2       0.65794    0.30725    0.42292   1.00
H2       0.63870    0.21581    0.57383   1.00
C6       0.59829    0.29713    0.40459   1.00
C6       0.58465    0.24483    0.58911   1.00
H2       0.62389    0.31577    0.45949   1.00
H2       0.60568    0.21844    0.53546   1.00
C6       0.60946    0.27393    0.36735   1.00
C6       0.60076    0.26349    0.62708   1.00
C6       0.55910    0.28142    0.42074   1.00
C6       0.55354    0.27222    0.57107   1.00
C6       0.59208    0.34034    0.39245   1.00
C6       0.56419    0.20604    0.60054   1.00
H2       0.63735    0.28391    0.35558   1.00
H2       0.62328    0.24514    0.64020   1.00
H2       0.61194    0.24282    0.37330   1.00
H2       0.61347    0.29208    0.62154   1.00
H2       0.58747    0.27748    0.34459   1.00
H2       0.57765    0.26743    0.64863   1.00
H2       0.53563    0.28527    0.39955   1.00
H2       0.52901    0.27634    0.59098   1.00
H2       0.56109    0.25035    0.42725   1.00
H2       0.56580    0.30092    0.56494   1.00
H2       0.55096    0.29672    0.44745   1.00
H2       0.54230    0.26014    0.54385   1.00
H2       0.61886    0.35275    0.38042   1.00
H2       0.58485    0.18575    0.61383   1.00
H2       0.56937    0.34298    0.37025   1.00
H2       0.54072    0.21107    0.62149   1.00
H2       0.58334    0.35811    0.41739   1.00
H2       0.55149    0.19183    0.57502   1.00
C4       0.74521    0.48025    0.24990   1.00
C4       0.74432    0.52191    0.24863   1.00
C3       0.74199    0.45897    0.28547   1.00
C3       0.73605    0.54504    0.28218   1.00
C3       0.74953    0.45854    0.21452   1.00
C3       0.75184    0.54170    0.21267   1.00
C2       0.74509    0.39595    0.25230   1.00
C2       0.74438    0.60622    0.24654   1.00
C3       0.74172    0.41811    0.28670   1.00
C3       0.73626    0.58591    0.28129   1.00
C3       0.74891    0.41696    0.21700   1.00
C3       0.75199    0.58336    0.21305   1.00
H1       0.74010    0.47237    0.31188   1.00
H1       0.72919    0.53306    0.30844   1.00
C5       0.75454    0.47835    0.17799   1.00
C5       0.75873    0.51998    0.17757   1.00
H1       0.73915    0.40451    0.31328   1.00
H1       0.73022    0.60091    0.30653   1.00
H1       0.75163    0.40052    0.19245   1.00
H1       0.75749    0.59848    0.18812   1.00
C6       0.75490    0.45515    0.14039   1.00
C6       0.77075    0.54119    0.14071   1.00
H2       0.73167    0.43345    0.14135   1.00
H2       0.79260    0.56310    0.14800   1.00
H2       0.74609    0.47286    0.11560   1.00
H2       0.78694    0.52228    0.12106   1.00
C6       0.79548    0.43606    0.13136   1.00
C6       0.73542    0.55942    0.11808   1.00
H2       0.80725    0.42292    0.15794   1.00
H2       0.71581    0.57383    0.13870   1.00
C6       0.79713    0.40459    0.09829   1.00
C6       0.74483    0.58911    0.08465   1.00
H2       0.81577    0.45949    0.12389   1.00
H2       0.71844    0.53546    0.10568   1.00
C6       0.77393    0.36735    0.10946   1.00
C6       0.76349    0.62708    0.10076   1.00
C6       0.78142    0.42074    0.05910   1.00
C6       0.77222    0.57107    0.05354   1.00
C6       0.84034    0.39245    0.09208   1.00
C6       0.70604    0.60054    0.06419   1.00
H2       0.78391    0.35558    0.13735   1.00
H2       0.74514    0.64020    0.12328   1.00
H2       0.74282    0.37330    0.11194   1.00
H2       0.79208    0.62154    0.11347   1.00
H2       0.77748    0.34459    0.08747   1.00
H2       0.76743    0.64863    0.07765   1.00
H2       0.78527    0.39955    0.03563   1.00
H2       0.77634    0.59098    0.02901   1.00
H2       0.75035    0.42725    0.06109   1.00
H2       0.80092    0.56494    0.06580   1.00
H2       0.79672    0.44745    0.05096   1.00
H2       0.76014    0.54385    0.04230   1.00
H2       0.85275    0.38042    0.11886   1.00
H2       0.68575    0.61383    0.08485   1.00
H2       0.84298    0.37025    0.06937   1.00
H2       0.71107    0.62149    0.04072   1.00
H2       0.85811    0.41739    0.08334   1.00
H2       0.69183    0.57502    0.05149   1.00
C4       0.51975    0.24990    0.25479   1.00
C4       0.47809    0.24863    0.25568   1.00
C3       0.54103    0.28547    0.25801   1.00
C3       0.45496    0.28218    0.26395   1.00
C3       0.54146    0.21452    0.25047   1.00
C3       0.45830    0.21267    0.24816   1.00
C2       0.60405    0.25230    0.25491   1.00
C2       0.39378    0.24654    0.25562   1.00
C3       0.58189    0.28670    0.25828   1.00
C3       0.41409    0.28129    0.26374   1.00
C3       0.58304    0.21700    0.25109   1.00
C3       0.41664    0.21305    0.24801   1.00
H1       0.52763    0.31188    0.25990   1.00
H1       0.46694    0.30844    0.27081   1.00
C5       0.52165    0.17799    0.24546   1.00
C5       0.48002    0.17757    0.24127   1.00
H1       0.59549    0.31328    0.26085   1.00
H1       0.39909    0.30653    0.26978   1.00
H1       0.59948    0.19245    0.24837   1.00
H1       0.40152    0.18812    0.24251   1.00
C6       0.54485    0.14039    0.24510   1.00
C6       0.45881    0.14071    0.22925   1.00
H2       0.56655    0.14135    0.26833   1.00
H2       0.43690    0.14800    0.20740   1.00
H2       0.52714    0.11560    0.25391   1.00
H2       0.47772    0.12106    0.21306   1.00
C6       0.56394    0.13136    0.20452   1.00
C6       0.44058    0.11808    0.26458   1.00
H2       0.57708    0.15794    0.19275   1.00
H2       0.42617    0.13870    0.28419   1.00
C6       0.59541    0.09829    0.20287   1.00
C6       0.41089    0.08465    0.25517   1.00
H2       0.54051    0.12389    0.18423   1.00
H2       0.46454    0.10568    0.28156   1.00
C6       0.63265    0.10946    0.22607   1.00
C6       0.37292    0.10076    0.23651   1.00
C6       0.57926    0.05910    0.21858   1.00
C6       0.42893    0.05354    0.22778   1.00
C6       0.60755    0.09208    0.15966   1.00
C6       0.39946    0.06419    0.29396   1.00
H2       0.64442    0.13735    0.21609   1.00
H2       0.35980    0.12328    0.25486   1.00
H2       0.62670    0.11194    0.25718   1.00
H2       0.37846    0.11347    0.20792   1.00
H2       0.65541    0.08747    0.22252   1.00
H2       0.35137    0.07765    0.23257   1.00
H2       0.60045    0.03563    0.21473   1.00
H2       0.40902    0.02901    0.22366   1.00
H2       0.57275    0.06109    0.24965   1.00
H2       0.43506    0.06580    0.19908   1.00
H2       0.55255    0.05096    0.20328   1.00
H2       0.45615    0.04230    0.23986   1.00
H2       0.61958    0.11886    0.14725   1.00
H2       0.38617    0.08485    0.31425   1.00
H2       0.62975    0.06937    0.15702   1.00
H2       0.37851    0.04072    0.28893   1.00
H2       0.58261    0.08334    0.14189   1.00
H2       0.42498    0.05149    0.30817   1.00
C4       0.98025    0.24990    0.24521   1.00
C4       1.02191    0.24863    0.24432   1.00
C3       0.95897    0.28547    0.24199   1.00
C3       1.04504    0.28218    0.23605   1.00
C3       0.95854    0.21452    0.24953   1.00
C3       1.04170    0.21267    0.25184   1.00
C2       0.89595    0.25230    0.24509   1.00
C2       1.10622    0.24654    0.24438   1.00
C3       0.91811    0.28670    0.24172   1.00
C3       1.08591    0.28129    0.23626   1.00
C3       0.91696    0.21700    0.24891   1.00
C3       1.08336    0.21305    0.25199   1.00
H1       0.97237    0.31188    0.24010   1.00
H1       1.03306    0.30844    0.22919   1.00
C5       0.97835    0.17799    0.25454   1.00
C5       1.01998    0.17757    0.25873   1.00
H1       0.90451    0.31328    0.23915   1.00
H1       1.10091    0.30653    0.23022   1.00
H1       0.90052    0.19245    0.25163   1.00
H1       1.09848    0.18812    0.25749   1.00
C6       0.95515    0.14039    0.25490   1.00
C6       1.04119    0.14071    0.27075   1.00
H2       0.93345    0.14135    0.23167   1.00
H2       1.06310    0.14800    0.29260   1.00
H2       0.97286    0.11560    0.24609   1.00
H2       1.02228    0.12106    0.28694   1.00
C6       0.93606    0.13136    0.29548   1.00
C6       1.05942    0.11808    0.23542   1.00
H2       0.92292    0.15794    0.30725   1.00
H2       1.07383    0.13870    0.21581   1.00
C6       0.90459    0.09829    0.29713   1.00
C6       1.08911    0.08465    0.24483   1.00
H2       0.95949    0.12389    0.31577   1.00
H2       1.03546    0.10568    0.21844   1.00
C6       0.86735    0.10946    0.27393   1.00
C6       1.12708    0.10076    0.26349   1.00
C6       0.92074    0.05910    0.28142   1.00
C6       1.07107    0.05354    0.27222   1.00
C6       0.89245    0.09208    0.34034   1.00
C6       1.10054    0.06419    0.20604   1.00
H2       0.85558    0.13735    0.28391   1.00
H2       1.14020    0.12328    0.24514   1.00
H2       0.87330    0.11194    0.24282   1.00
H2       1.12154    0.11347    0.29208   1.00
H2       0.84459    0.08747    0.27748   1.00
H2       1.14863    0.07765    0.26743   1.00
H2       0.89955    0.03563    0.28527   1.00
H2       1.09098    0.02901    0.27634   1.00
H2       0.92725    0.06109    0.25035   1.00
H2       1.06494    0.06580    0.30092   1.00
H2       0.94745    0.05096    0.29672   1.00
H2       1.04385    0.04230    0.26014   1.00
H2       0.88042    0.11886    0.35275   1.00
H2       1.11383    0.08485    0.18575   1.00
H2       0.87025    0.06937    0.34298   1.00
H2       1.12149    0.04072    0.21107   1.00
H2       0.91739    0.08334    0.35811   1.00
H2       1.07502    0.05149    0.19183   1.00
C4       0.75479    0.01975    0.24990   1.00
C4       0.75568    -0.02191   0.24863   1.00
C3       0.75801    0.04103    0.28547   1.00
C3       0.76395    -0.04504   0.28218   1.00
C3       0.75047    0.04146    0.21452   1.00
C3       0.74816    -0.04170   0.21267   1.00
C2       0.75491    0.10405    0.25230   1.00
C2       0.75562    -0.10622   0.24654   1.00
C3       0.75828    0.08189    0.28670   1.00
C3       0.76374    -0.08591   0.28129   1.00
C3       0.75109    0.08304    0.21700   1.00
C3       0.74801    -0.08336   0.21305   1.00
H1       0.75990    0.02763    0.31188   1.00
H1       0.77081    -0.03306   0.30844   1.00
C5       0.74546    0.02165    0.17799   1.00
C5       0.74127    -0.01998   0.17757   1.00
H1       0.76085    0.09549    0.31328   1.00
H1       0.76978    -0.10091   0.30653   1.00
H1       0.74837    0.09948    0.19245   1.00
H1       0.74251    -0.09848   0.18812   1.00
C6       0.74510    0.04485    0.14039   1.00
C6       0.72925    -0.04119   0.14071   1.00
H2       0.76833    0.06655    0.14135   1.00
H2       0.70740    -0.06310   0.14800   1.00
H2       0.75391    0.02714    0.11560   1.00
H2       0.71306    -0.02228   0.12106   1.00
C6       0.70452    0.06394    0.13136   1.00
C6       0.76458    -0.05942   0.11808   1.00
H2       0.69275    0.07708    0.15794   1.00
H2       0.78419    -0.07383   0.13870   1.00
C6       0.70287    0.09541    0.09829   1.00
C6       0.75517    -0.08911   0.08465   1.00
H2       0.68423    0.04051    0.12389   1.00
H2       0.78156    -0.03546   0.10568   1.00
C6       0.72607    0.13265    0.10946   1.00
C6       0.73651    -0.12708   0.10076   1.00
C6       0.71858    0.07926    0.05910   1.00
C6       0.72778    -0.07107   0.05354   1.00
C6       0.65966    0.10755    0.09208   1.00
C6       0.79396    -0.10054   0.06419   1.00
H2       0.71609    0.14442    0.13735   1.00
H2       0.75486    -0.14020   0.12328   1.00
H2       0.75718    0.12670    0.11194   1.00
H2       0.70792    -0.12154   0.11347   1.00
H2       0.72252    0.15541    0.08747   1.00
H2       0.73257    -0.14863   0.07765   1.00
H2       0.71473    0.10045    0.03563   1.00
H2       0.72366    -0.09098   0.02901   1.00
H2       0.74965    0.07275    0.06109   1.00
H2       0.69908    -0.06494   0.06580   1.00
H2       0.70328    0.05255    0.05096   1.00
H2       0.73986    -0.04385   0.04230   1.00
H2       0.64725    0.11958    0.11886   1.00
H2       0.81425    -0.11383   0.08485   1.00
H2       0.65702    0.12975    0.06937   1.00
H2       0.78893    -0.12149   0.04072   1.00
H2       0.64189    0.08261    0.08334   1.00
H2       0.80817    -0.07502   0.05149   1.00
C4       0.74990    0.25479    0.01975   1.00
C4       0.74863    0.25568    -0.02191   1.00
C3       0.78547    0.25801    0.04103   1.00
C3       0.78218    0.26395    -0.04504   1.00
C3       0.71452    0.25047    0.04146   1.00
C3       0.71267    0.24816    -0.04170   1.00
C2       0.75230    0.25491    0.10405   1.00
C2       0.74654    0.25562    -0.10622   1.00
C3       0.78670    0.25828    0.08189   1.00
C3       0.78129    0.26374    -0.08591   1.00
C3       0.71700    0.25109    0.08304   1.00
C3       0.71305    0.24801    -0.08336   1.00
H1       0.81188    0.25990    0.02763   1.00
H1       0.80844    0.27081    -0.03306   1.00
C5       0.67799    0.24546    0.02165   1.00
C5       0.67757    0.24127    -0.01998   1.00
H1       0.81328    0.26085    0.09549   1.00
H1       0.80653    0.26978    -0.10091   1.00
H1       0.69245    0.24837    0.09948   1.00
H1       0.68812    0.24251    -0.09848   1.00
C6       0.64039    0.24510    0.04485   1.00
C6       0.64071    0.22925    -0.04119   1.00
H2       0.64135    0.26833    0.06655   1.00
H2       0.64800    0.20740    -0.06310   1.00
H2       0.61560    0.25391    0.02714   1.00
H2       0.62106    0.21306    -0.02228   1.00
C6       0.63136    0.20452    0.06394   1.00
C6       0.61808    0.26458    -0.05942   1.00
H2       0.65794    0.19275    0.07708   1.00
H2       0.63870    0.28419    -0.07383   1.00
C6       0.59829    0.20287    0.09541   1.00
C6       0.58465    0.25517    -0.08911   1.00
H2       0.62389    0.18423    0.04051   1.00
H2       0.60568    0.28156    -0.03546   1.00
C6       0.60946    0.22607    0.13265   1.00
C6       0.60076    0.23651    -0.12708   1.00
C6       0.55910    0.21858    0.07926   1.00
C6       0.55354    0.22778    -0.07107   1.00
C6       0.59208    0.15966    0.10755   1.00
C6       0.56419    0.29396    -0.10054   1.00
H2       0.63735    0.21609    0.14442   1.00
H2       0.62328    0.25486    -0.14020   1.00
H2       0.61194    0.25718    0.12670   1.00
H2       0.61347    0.20792    -0.12154   1.00
H2       0.58747    0.22252    0.15541   1.00
H2       0.57765    0.23257    -0.14863   1.00
H2       0.53563    0.21473    0.10045   1.00
H2       0.52901    0.22366    -0.09098   1.00
H2       0.56109    0.24965    0.07275   1.00
H2       0.56580    0.19908    -0.06494   1.00
H2       0.55096    0.20328    0.05255   1.00
H2       0.54230    0.23986    -0.04385   1.00
H2       0.61886    0.14725    0.11958   1.00
H2       0.58485    0.31425    -0.11383   1.00
H2       0.56937    0.15702    0.12975   1.00
H2       0.54072    0.28893    -0.12149   1.00
H2       0.58334    0.14189    0.08261   1.00
H2       0.55149    0.30817    -0.07502   1.00
C4       0.91490    0.91021    1.14525   1.00
C4       0.91363    0.90932    1.18691   1.00
C3       0.95047    0.90699    1.12397   1.00
C3       0.94718    0.90105    1.21004   1.00
C3       0.87952    0.91453    1.12354   1.00
C3       0.87767    0.91684    1.20670   1.00
C2       0.91730    0.91009    1.06095   1.00
C2       0.91154    0.90938    1.27122   1.00
C3       0.95170    0.90672    1.08311   1.00
C3       0.94629    0.90126    1.25091   1.00
C3       0.88200    0.91391    1.08196   1.00
C3       0.87805    0.91699    1.24836   1.00
H1       0.97688    0.90510    1.13737   1.00
H1       0.97344    0.89419    1.19806   1.00
C5       0.84299    0.91954    1.14335   1.00
C5       0.84257    0.92373    1.18498   1.00
H1       0.97828    0.90415    1.06951   1.00
H1       0.97153    0.89522    1.26591   1.00
H1       0.85745    0.91663    1.06552   1.00
H1       0.85312    0.92249    1.26348   1.00
C6       0.80539    0.91990    1.12015   1.00
C6       0.80571    0.93575    1.20619   1.00
H2       0.80635    0.89667    1.09845   1.00
H2       0.81300    0.95760    1.22810   1.00
H2       0.78060    0.91109    1.13786   1.00
H2       0.78606    0.95194    1.18728   1.00
C6       0.79636    0.96048    1.10106   1.00
C6       0.78308    0.90042    1.22442   1.00
H2       0.82294    0.97225    1.08792   1.00
H2       0.80370    0.88081    1.23883   1.00
C6       0.76329    0.96213    1.06959   1.00
C6       0.74965    0.90983    1.25411   1.00
H2       0.78889    0.98077    1.12449   1.00
H2       0.77068    0.88344    1.20046   1.00
C6       0.77446    0.93893    1.03235   1.00
C6       0.76576    0.92849    1.29208   1.00
C6       0.72410    0.94642    1.08574   1.00
C6       0.71854    0.93722    1.23607   1.00
C6       0.75708    1.00534    1.05745   1.00
C6       0.72919    0.87104    1.26554   1.00
H2       0.80235    0.94891    1.02058   1.00
H2       0.78828    0.91014    1.30520   1.00
H2       0.77694    0.90782    1.03830   1.00
H2       0.77847    0.95708    1.28654   1.00
H2       0.75247    0.94248    1.00959   1.00
H2       0.74265    0.93243    1.31363   1.00
H2       0.70063    0.95027    1.06455   1.00
H2       0.69401    0.94134    1.25598   1.00
H2       0.72609    0.91535    1.09225   1.00
H2       0.73080    0.96592    1.22994   1.00
H2       0.71596    0.96172    1.11245   1.00
H2       0.70730    0.92514    1.20885   1.00
H2       0.78386    1.01775    1.04542   1.00
H2       0.74985    0.85075    1.27883   1.00
H2       0.73437    1.00798    1.03525   1.00
H2       0.70572    0.87607    1.28649   1.00
H2       0.74834    1.02311    1.08239   1.00
H2       0.71649    0.85683    1.24002   1.00
C4       0.91021    1.14525    0.91490   1.00
C4       0.90932    1.18691    0.91363   1.00
C3       0.90699    1.12397    0.95047   1.00
C3       0.90105    1.21004    0.94718   1.00
C3       0.91453    1.12354    0.87952   1.00
C3       0.91684    1.20670    0.87767   1.00
C2       0.91009    1.06095    0.91730   1.00
C2       0.90938    1.27122    0.91154   1.00
C3       0.90672    1.08311    0.95170   1.00
C3       0.90126    1.25091    0.94629   1.00
C3       0.91391    1.08196    0.88200   1.00
C3       0.91699    1.24836    0.87805   1.00
H1       0.90510    1.13737    0.97688   1.00
H1       0.89419    1.19806    0.97344   1.00
C5       0.91954    1.14335    0.84299   1.00
C5       0.92373    1.18498    0.84257   1.00
H1       0.90415    1.06951    0.97828   1.00
H1       0.89522    1.26591    0.97153   1.00
H1       0.91663    1.06552    0.85745   1.00
H1       0.92249    1.26348    0.85312   1.00
C6       0.91990    1.12015    0.80539   1.00
C6       0.93575    1.20619    0.80571   1.00
H2       0.89667    1.09845    0.80635   1.00
H2       0.95760    1.22810    0.81300   1.00
H2       0.91109    1.13786    0.78060   1.00
H2       0.95194    1.18728    0.78606   1.00
C6       0.96048    1.10106    0.79636   1.00
C6       0.90042    1.22442    0.78308   1.00
H2       0.97225    1.08792    0.82294   1.00
H2       0.88081    1.23883    0.80370   1.00
C6       0.96213    1.06959    0.76329   1.00
C6       0.90983    1.25411    0.74965   1.00
H2       0.98077    1.12449    0.78889   1.00
H2       0.88344    1.20046    0.77068   1.00
C6       0.93893    1.03235    0.77446   1.00
C6       0.92849    1.29208    0.76576   1.00
C6       0.94642    1.08574    0.72410   1.00
C6       0.93722    1.23607    0.71854   1.00
C6       1.00534    1.05745    0.75708   1.00
C6       0.87104    1.26554    0.72919   1.00
H2       0.94891    1.02058    0.80235   1.00
H2       0.91014    1.30520    0.78828   1.00
H2       0.90782    1.03830    0.77694   1.00
H2       0.95708    1.28654    0.77847   1.00
H2       0.94248    1.00959    0.75247   1.00
H2       0.93243    1.31363    0.74265   1.00
H2       0.95027    1.06455    0.70063   1.00
H2       0.94134    1.25598    0.69401   1.00
H2       0.91535    1.09225    0.72609   1.00
H2       0.96592    1.22994    0.73080   1.00
H2       0.96172    1.11245    0.71596   1.00
H2       0.92514    1.20885    0.70730   1.00
H2       1.01775    1.04542    0.78386   1.00
H2       0.85075    1.27883    0.74985   1.00
H2       1.00798    1.03525    0.73437   1.00
H2       0.87607    1.28649    0.70572   1.00
H2       1.02311    1.08239    0.74834   1.00
H2       0.85683    1.24002    0.71649   1.00
C4       0.68475    0.91490    0.91979   1.00
C4       0.64309    0.91363    0.92068   1.00
C3       0.70603    0.95047    0.92301   1.00
C3       0.61996    0.94718    0.92895   1.00
C3       0.70646    0.87952    0.91547   1.00
C3       0.62330    0.87767    0.91316   1.00
C2       0.76905    0.91730    0.91991   1.00
C2       0.55878    0.91154    0.92062   1.00
C3       0.74689    0.95170    0.92328   1.00
C3       0.57909    0.94629    0.92874   1.00
C3       0.74804    0.88200    0.91609   1.00
C3       0.58164    0.87805    0.91301   1.00
H1       0.69263    0.97688    0.92490   1.00
H1       0.63194    0.97344    0.93581   1.00
C5       0.68665    0.84299    0.91046   1.00
C5       0.64502    0.84257    0.90627   1.00
H1       0.76049    0.97828    0.92585   1.00
H1       0.56409    0.97153    0.93478   1.00
H1       0.76448    0.85745    0.91337   1.00
H1       0.56652    0.85312    0.90751   1.00
C6       0.70985    0.80539    0.91010   1.00
C6       0.62381    0.80571    0.89425   1.00
H2       0.73155    0.80635    0.93333   1.00
H2       0.60190    0.81300    0.87240   1.00
H2       0.69214    0.78060    0.91891   1.00
H2       0.64272    0.78606    0.87806   1.00
C6       0.72894    0.79636    0.86952   1.00
C6       0.60558    0.78308    0.92958   1.00
H2       0.74208    0.82294    0.85775   1.00
H2       0.59117    0.80370    0.94919   1.00
C6       0.76041    0.76329    0.86787   1.00
C6       0.57589    0.74965    0.92017   1.00
H2       0.70551    0.78889    0.84923   1.00
H2       0.62954    0.77068    0.94656   1.00
C6       0.79765    0.77446    0.89107   1.00
C6       0.53792    0.76576    0.90151   1.00
C6       0.74426    0.72410    0.88358   1.00
C6       0.59393    0.71854    0.89278   1.00
C6       0.77255    0.75708    0.82466   1.00
C6       0.56446    0.72919    0.95896   1.00
H2       0.80942    0.80235    0.88109   1.00
H2       0.52480    0.78828    0.91986   1.00
H2       0.79170    0.77694    0.92218   1.00
H2       0.54346    0.77847    0.87292   1.00
H2       0.82041    0.75247    0.88752   1.00
H2       0.51637    0.74265    0.89757   1.00
H2       0.76545    0.70063    0.87973   1.00
H2       0.57402    0.69401    0.88866   1.00
H2       0.73775    0.72609    0.91465   1.00
H2       0.60006    0.73080    0.86408   1.00
H2       0.71755    0.71596    0.86828   1.00
H2       0.62115    0.70730    0.90486   1.00
H2       0.78458    0.78386    0.81225   1.00
H2       0.55117    0.74985    0.97925   1.00
H2       0.79475    0.73437    0.82202   1.00
H2       0.54351    0.70572    0.95393   1.00
H2       0.74761    0.74834    0.80689   1.00
H2       0.58998    0.71649    0.97317   1.00
C4       1.14525    0.91490    0.91021   1.00
C4       1.18691    0.91363    0.90932   1.00
C3       1.12397    0.95047    0.90699   1.00
C3       1.21004    0.94718    0.90105   1.00
C3       1.12354    0.87952    0.91453   1.00
C3       1.20670    0.87767    0.91684   1.00
C2       1.06095    0.91730    0.91009   1.00
C2       1.27122    0.91154    0.90938   1.00
C3       1.08311    0.95170    0.90672   1.00
C3       1.25091    0.94629    0.90126   1.00
C3       1.08196    0.88200    0.91391   1.00
C3       1.24836    0.87805    0.91699   1.00
H1       1.13737    0.97688    0.90510   1.00
H1       1.19806    0.97344    0.89419   1.00
C5       1.14335    0.84299    0.91954   1.00
C5       1.18498    0.84257    0.92373   1.00
H1       1.06951    0.97828    0.90415   1.00
H1       1.26591    0.97153    0.89522   1.00
H1       1.06552    0.85745    0.91663   1.00
H1       1.26348    0.85312    0.92249   1.00
C6       1.12015    0.80539    0.91990   1.00
C6       1.20619    0.80571    0.93575   1.00
H2       1.09845    0.80635    0.89667   1.00
H2       1.22810    0.81300    0.95760   1.00
H2       1.13786    0.78060    0.91109   1.00
H2       1.18728    0.78606    0.95194   1.00
C6       1.10106    0.79636    0.96048   1.00
C6       1.22442    0.78308    0.90042   1.00
H2       1.08792    0.82294    0.97225   1.00
H2       1.23883    0.80370    0.88081   1.00
C6       1.06959    0.76329    0.96213   1.00
C6       1.25411    0.74965    0.90983   1.00
H2       1.12449    0.78889    0.98077   1.00
H2       1.20046    0.77068    0.88344   1.00
C6       1.03235    0.77446    0.93893   1.00
C6       1.29208    0.76576    0.92849   1.00
C6       1.08574    0.72410    0.94642   1.00
C6       1.23607    0.71854    0.93722   1.00
C6       1.05745    0.75708    1.00534   1.00
C6       1.26554    0.72919    0.87104   1.00
H2       1.02058    0.80235    0.94891   1.00
H2       1.30520    0.78828    0.91014   1.00
H2       1.03830    0.77694    0.90782   1.00
H2       1.28654    0.77847    0.95708   1.00
H2       1.00959    0.75247    0.94248   1.00
H2       1.31363    0.74265    0.93243   1.00
H2       1.06455    0.70063    0.95027   1.00
H2       1.25598    0.69401    0.94134   1.00
H2       1.09225    0.72609    0.91535   1.00
H2       1.22994    0.73080    0.96592   1.00
H2       1.11245    0.71596    0.96172   1.00
H2       1.20885    0.70730    0.92514   1.00
H2       1.04542    0.78386    1.01775   1.00
H2       1.27883    0.74985    0.85075   1.00
H2       1.03525    0.73437    1.00798   1.00
H2       1.28649    0.70572    0.87607   1.00
H2       1.08239    0.74834    1.02311   1.00
H2       1.24002    0.71649    0.85683   1.00
C4       0.91979    0.68475    0.91490   1.00
C4       0.92068    0.64309    0.91363   1.00
C3       0.92301    0.70603    0.95047   1.00
C3       0.92895    0.61996    0.94718   1.00
C3       0.91547    0.70646    0.87952   1.00
C3       0.91316    0.62330    0.87767   1.00
C2       0.91991    0.76905    0.91730   1.00
C2       0.92062    0.55878    0.91154   1.00
C3       0.92328    0.74689    0.95170   1.00
C3       0.92874    0.57909    0.94629   1.00
C3       0.91609    0.74804    0.88200   1.00
C3       0.91301    0.58164    0.87805   1.00
H1       0.92490    0.69263    0.97688   1.00
H1       0.93581    0.63194    0.97344   1.00
C5       0.91046    0.68665    0.84299   1.00
C5       0.90627    0.64502    0.84257   1.00
H1       0.92585    0.76049    0.97828   1.00
H1       0.93478    0.56409    0.97153   1.00
H1       0.91337    0.76448    0.85745   1.00
H1       0.90751    0.56652    0.85312   1.00
C6       0.91010    0.70985    0.80539   1.00
C6       0.89425    0.62381    0.80571   1.00
H2       0.93333    0.73155    0.80635   1.00
H2       0.87240    0.60190    0.81300   1.00
H2       0.91891    0.69214    0.78060   1.00
H2       0.87806    0.64272    0.78606   1.00
C6       0.86952    0.72894    0.79636   1.00
C6       0.92958    0.60558    0.78308   1.00
H2       0.85775    0.74208    0.82294   1.00
H2       0.94919    0.59117    0.80370   1.00
C6       0.86787    0.76041    0.76329   1.00
C6       0.92017    0.57589    0.74965   1.00
H2       0.84923    0.70551    0.78889   1.00
H2       0.94656    0.62954    0.77068   1.00
C6       0.89107    0.79765    0.77446   1.00
C6       0.90151    0.53792    0.76576   1.00
C6       0.88358    0.74426    0.72410   1.00
C6       0.89278    0.59393    0.71854   1.00
C6       0.82466    0.77255    0.75708   1.00
C6       0.95896    0.56446    0.72919   1.00
H2       0.88109    0.80942    0.80235   1.00
H2       0.91986    0.52480    0.78828   1.00
H2       0.92218    0.79170    0.77694   1.00
H2       0.87292    0.54346    0.77847   1.00
H2       0.88752    0.82041    0.75247   1.00
H2       0.89757    0.51637    0.74265   1.00
H2       0.87973    0.76545    0.70063   1.00
H2       0.88866    0.57402    0.69401   1.00
H2       0.91465    0.73775    0.72609   1.00
H2       0.86408    0.60006    0.73080   1.00
H2       0.86828    0.71755    0.71596   1.00
H2       0.90486    0.62115    0.70730   1.00
H2       0.81225    0.78458    0.78386   1.00
H2       0.97925    0.55117    0.74985   1.00
H2       0.82202    0.79475    0.73437   1.00
H2       0.95393    0.54351    0.70572   1.00
H2       0.80689    0.74761    0.74834   1.00
H2       0.97317    0.58998    0.71649   1.00
C4       0.91490    0.91979    0.68475   1.00
C4       0.91363    0.92068    0.64309   1.00
C3       0.95047    0.92301    0.70603   1.00
C3       0.94718    0.92895    0.61996   1.00
C3       0.87952    0.91547    0.70646   1.00
C3       0.87767    0.91316    0.62330   1.00
C2       0.91730    0.91991    0.76905   1.00
C2       0.91154    0.92062    0.55878   1.00
C3       0.95170    0.92328    0.74689   1.00
C3       0.94629    0.92874    0.57909   1.00
C3       0.88200    0.91609    0.74804   1.00
C3       0.87805    0.91301    0.58164   1.00
H1       0.97688    0.92490    0.69263   1.00
H1       0.97344    0.93581    0.63194   1.00
C5       0.84299    0.91046    0.68665   1.00
C5       0.84257    0.90627    0.64502   1.00
H1       0.97828    0.92585    0.76049   1.00
H1       0.97153    0.93478    0.56409   1.00
H1       0.85745    0.91337    0.76448   1.00
H1       0.85312    0.90751    0.56652   1.00
C6       0.80539    0.91010    0.70985   1.00
C6       0.80571    0.89425    0.62381   1.00
H2       0.80635    0.93333    0.73155   1.00
H2       0.81300    0.87240    0.60190   1.00
H2       0.78060    0.91891    0.69214   1.00
H2       0.78606    0.87806    0.64272   1.00
C6       0.79636    0.86952    0.72894   1.00
C6       0.78308    0.92958    0.60558   1.00
H2       0.82294    0.85775    0.74208   1.00
H2       0.80370    0.94919    0.59117   1.00
C6       0.76329    0.86787    0.76041   1.00
C6       0.74965    0.92017    0.57589   1.00
H2       0.78889    0.84923    0.70551   1.00
H2       0.77068    0.94656    0.62954   1.00
C6       0.77446    0.89107    0.79765   1.00
C6       0.76576    0.90151    0.53792   1.00
C6       0.72410    0.88358    0.74426   1.00
C6       0.71854    0.89278    0.59393   1.00
C6       0.75708    0.82466    0.77255   1.00
C6       0.72919    0.95896    0.56446   1.00
H2       0.80235    0.88109    0.80942   1.00
H2       0.78828    0.91986    0.52480   1.00
H2       0.77694    0.92218    0.79170   1.00
H2       0.77847    0.87292    0.54346   1.00
H2       0.75247    0.88752    0.82041   1.00
H2       0.74265    0.89757    0.51637   1.00
H2       0.70063    0.87973    0.76545   1.00
H2       0.69401    0.88866    0.57402   1.00
H2       0.72609    0.91465    0.73775   1.00
H2       0.73080    0.86408    0.60006   1.00
H2       0.71596    0.86828    0.71755   1.00
H2       0.70730    0.90486    0.62115   1.00
H2       0.78386    0.81225    0.78458   1.00
H2       0.74985    0.97925    0.55117   1.00
H2       0.73437    0.82202    0.79475   1.00
H2       0.70572    0.95393    0.54351   1.00
H2       0.74834    0.80689    0.74761   1.00
H2       0.71649    0.97317    0.58998   1.00
C4       0.41490    0.41021    1.14525   1.00
C4       0.41363    0.40932    1.18691   1.00
C3       0.45047    0.40699    1.12397   1.00
C3       0.44718    0.40105    1.21004   1.00
C3       0.37952    0.41453    1.12354   1.00
C3       0.37767    0.41684    1.20670   1.00
C2       0.41730    0.41009    1.06095   1.00
C2       0.41154    0.40938    1.27122   1.00
C3       0.45170    0.40672    1.08311   1.00
C3       0.44629    0.40126    1.25091   1.00
C3       0.38200    0.41391    1.08196   1.00
C3       0.37805    0.41699    1.24836   1.00
H1       0.47688    0.40510    1.13737   1.00
H1       0.47344    0.39419    1.19806   1.00
C5       0.34299    0.41954    1.14335   1.00
C5       0.34257    0.42373    1.18498   1.00
H1       0.47828    0.40415    1.06951   1.00
H1       0.47153    0.39522    1.26591   1.00
H1       0.35745    0.41663    1.06552   1.00
H1       0.35312    0.42249    1.26348   1.00
C6       0.30539    0.41990    1.12015   1.00
C6       0.30571    0.43575    1.20619   1.00
H2       0.30635    0.39667    1.09845   1.00
H2       0.31300    0.45760    1.22810   1.00
H2       0.28060    0.41109    1.13786   1.00
H2       0.28606    0.45194    1.18728   1.00
C6       0.29636    0.46048    1.10106   1.00
C6       0.28308    0.40042    1.22442   1.00
H2       0.32294    0.47225    1.08792   1.00
H2       0.30370    0.38081    1.23883   1.00
C6       0.26329    0.46213    1.06959   1.00
C6       0.24965    0.40983    1.25411   1.00
H2       0.28889    0.48077    1.12449   1.00
H2       0.27068    0.38344    1.20046   1.00
C6       0.27446    0.43893    1.03235   1.00
C6       0.26576    0.42849    1.29208   1.00
C6       0.22410    0.44642    1.08574   1.00
C6       0.21854    0.43722    1.23607   1.00
C6       0.25708    0.50534    1.05745   1.00
C6       0.22919    0.37104    1.26554   1.00
H2       0.30235    0.44891    1.02058   1.00
H2       0.28828    0.41014    1.30520   1.00
H2       0.27694    0.40782    1.03830   1.00
H2       0.27847    0.45708    1.28654   1.00
H2       0.25247    0.44248    1.00959   1.00
H2       0.24265    0.43243    1.31363   1.00
H2       0.20063    0.45027    1.06455   1.00
H2       0.19401    0.44134    1.25598   1.00
H2       0.22609    0.41535    1.09225   1.00
H2       0.23080    0.46592    1.22994   1.00
H2       0.21596    0.46172    1.11245   1.00
H2       0.20730    0.42514    1.20885   1.00
H2       0.28386    0.51775    1.04542   1.00
H2       0.24985    0.35075    1.27883   1.00
H2       0.23437    0.50798    1.03525   1.00
H2       0.20572    0.37607    1.28649   1.00
H2       0.24834    0.52311    1.08239   1.00
H2       0.21649    0.35683    1.24002   1.00
C4       0.41021    0.64525    0.91490   1.00
C4       0.40932    0.68691    0.91363   1.00
C3       0.40699    0.62397    0.95047   1.00
C3       0.40105    0.71004    0.94718   1.00
C3       0.41453    0.62354    0.87952   1.00
C3       0.41684    0.70670    0.87767   1.00
C2       0.41009    0.56095    0.91730   1.00
C2       0.40938    0.77122    0.91154   1.00
C3       0.40672    0.58311    0.95170   1.00
C3       0.40126    0.75091    0.94629   1.00
C3       0.41391    0.58196    0.88200   1.00
C3       0.41699    0.74836    0.87805   1.00
H1       0.40510    0.63737    0.97688   1.00
H1       0.39419    0.69806    0.97344   1.00
C5       0.41954    0.64335    0.84299   1.00
C5       0.42373    0.68498    0.84257   1.00
H1       0.40415    0.56951    0.97828   1.00
H1       0.39522    0.76591    0.97153   1.00
H1       0.41663    0.56552    0.85745   1.00
H1       0.42249    0.76348    0.85312   1.00
C6       0.41990    0.62015    0.80539   1.00
C6       0.43575    0.70619    0.80571   1.00
H2       0.39667    0.59845    0.80635   1.00
H2       0.45760    0.72810    0.81300   1.00
H2       0.41109    0.63786    0.78060   1.00
H2       0.45194    0.68728    0.78606   1.00
C6       0.46048    0.60106    0.79636   1.00
C6       0.40042    0.72442    0.78308   1.00
H2       0.47225    0.58792    0.82294   1.00
H2       0.38081    0.73883    0.80370   1.00
C6       0.46213    0.56959    0.76329   1.00
C6       0.40983    0.75411    0.74965   1.00
H2       0.48077    0.62449    0.78889   1.00
H2       0.38344    0.70046    0.77068   1.00
C6       0.43893    0.53235    0.77446   1.00
C6       0.42849    0.79208    0.76576   1.00
C6       0.44642    0.58574    0.72410   1.00
C6       0.43722    0.73607    0.71854   1.00
C6       0.50534    0.55745    0.75708   1.00
C6       0.37104    0.76554    0.72919   1.00
H2       0.44891    0.52058    0.80235   1.00
H2       0.41014    0.80520    0.78828   1.00
H2       0.40782    0.53830    0.77694   1.00
H2       0.45708    0.78654    0.77847   1.00
H2       0.44248    0.50959    0.75247   1.00
H2       0.43243    0.81363    0.74265   1.00
H2       0.45027    0.56455    0.70063   1.00
H2       0.44134    0.75598    0.69401   1.00
H2       0.41535    0.59225    0.72609   1.00
H2       0.46592    0.72994    0.73080   1.00
H2       0.46172    0.61245    0.71596   1.00
H2       0.42514    0.70885    0.70730   1.00
H2       0.51775    0.54542    0.78386   1.00
H2       0.35075    0.77883    0.74985   1.00
H2       0.50798    0.53525    0.73437   1.00
H2       0.37607    0.78649    0.70572   1.00
H2       0.52311    0.58239    0.74834   1.00
H2       0.35683    0.74002    0.71649   1.00
C4       0.18475    0.41490    0.91979   1.00
C4       0.14309    0.41363    0.92068   1.00
C3       0.20603    0.45047    0.92301   1.00
C3       0.11996    0.44718    0.92895   1.00
C3       0.20646    0.37952    0.91547   1.00
C3       0.12330    0.37767    0.91316   1.00
C2       0.26905    0.41730    0.91991   1.00
C2       0.05878    0.41154    0.92062   1.00
C3       0.24689    0.45170    0.92328   1.00
C3       0.07909    0.44629    0.92874   1.00
C3       0.24804    0.38200    0.91609   1.00
C3       0.08164    0.37805    0.91301   1.00
H1       0.19263    0.47688    0.92490   1.00
H1       0.13194    0.47344    0.93581   1.00
C5       0.18665    0.34299    0.91046   1.00
C5       0.14502    0.34257    0.90627   1.00
H1       0.26049    0.47828    0.92585   1.00
H1       0.06409    0.47153    0.93478   1.00
H1       0.26448    0.35745    0.91337   1.00
H1       0.06652    0.35312    0.90751   1.00
C6       0.20985    0.30539    0.91010   1.00
C6       0.12381    0.30571    0.89425   1.00
H2       0.23155    0.30635    0.93333   1.00
H2       0.10190    0.31300    0.87240   1.00
H2       0.19214    0.28060    0.91891   1.00
H2       0.14272    0.28606    0.87806   1.00
C6       0.22894    0.29636    0.86952   1.00
C6       0.10558    0.28308    0.92958   1.00
H2       0.24208    0.32294    0.85775   1.00
H2       0.09117    0.30370    0.94919   1.00
C6       0.26041    0.26329    0.86787   1.00
C6       0.07589    0.24965    0.92017   1.00
H2       0.20551    0.28889    0.84923   1.00
H2       0.12954    0.27068    0.94656   1.00
C6       0.29765    0.27446    0.89107   1.00
C6       0.03792    0.26576    0.90151   1.00
C6       0.24426    0.22410    0.88358   1.00
C6       0.09393    0.21854    0.89278   1.00
C6       0.27255    0.25708    0.82466   1.00
C6       0.06446    0.22919    0.95896   1.00
H2       0.30942    0.30235    0.88109   1.00
H2       0.02480    0.28828    0.91986   1.00
H2       0.29170    0.27694    0.92218   1.00
H2       0.04346    0.27847    0.87292   1.00
H2       0.32041    0.25247    0.88752   1.00
H2       0.01637    0.24265    0.89757   1.00
H2       0.26545    0.20063    0.87973   1.00
H2       0.07402    0.19401    0.88866   1.00
H2       0.23775    0.22609    0.91465   1.00
H2       0.10006    0.23080    0.86408   1.00
H2       0.21755    0.21596    0.86828   1.00
H2       0.12115    0.20730    0.90486   1.00
H2       0.28458    0.28386    0.81225   1.00
H2       0.05117    0.24985    0.97925   1.00
H2       0.29475    0.23437    0.82202   1.00
H2       0.04351    0.20572    0.95393   1.00
H2       0.24761    0.24834    0.80689   1.00
H2       0.08998    0.21649    0.97317   1.00
C4       0.64525    0.41490    0.91021   1.00
C4       0.68691    0.41363    0.90932   1.00
C3       0.62397    0.45047    0.90699   1.00
C3       0.71004    0.44718    0.90105   1.00
C3       0.62354    0.37952    0.91453   1.00
C3       0.70670    0.37767    0.91684   1.00
C2       0.56095    0.41730    0.91009   1.00
C2       0.77122    0.41154    0.90938   1.00
C3       0.58311    0.45170    0.90672   1.00
C3       0.75091    0.44629    0.90126   1.00
C3       0.58196    0.38200    0.91391   1.00
C3       0.74836    0.37805    0.91699   1.00
H1       0.63737    0.47688    0.90510   1.00
H1       0.69806    0.47344    0.89419   1.00
C5       0.64335    0.34299    0.91954   1.00
C5       0.68498    0.34257    0.92373   1.00
H1       0.56951    0.47828    0.90415   1.00
H1       0.76591    0.47153    0.89522   1.00
H1       0.56552    0.35745    0.91663   1.00
H1       0.76348    0.35312    0.92249   1.00
C6       0.62015    0.30539    0.91990   1.00
C6       0.70619    0.30571    0.93575   1.00
H2       0.59845    0.30635    0.89667   1.00
H2       0.72810    0.31300    0.95760   1.00
H2       0.63786    0.28060    0.91109   1.00
H2       0.68728    0.28606    0.95194   1.00
C6       0.60106    0.29636    0.96048   1.00
C6       0.72442    0.28308    0.90042   1.00
H2       0.58792    0.32294    0.97225   1.00
H2       0.73883    0.30370    0.88081   1.00
C6       0.56959    0.26329    0.96213   1.00
C6       0.75411    0.24965    0.90983   1.00
H2       0.62449    0.28889    0.98077   1.00
H2       0.70046    0.27068    0.88344   1.00
C6       0.53235    0.27446    0.93893   1.00
C6       0.79208    0.26576    0.92849   1.00
C6       0.58574    0.22410    0.94642   1.00
C6       0.73607    0.21854    0.93722   1.00
C6       0.55745    0.25708    1.00534   1.00
C6       0.76554    0.22919    0.87104   1.00
H2       0.52058    0.30235    0.94891   1.00
H2       0.80520    0.28828    0.91014   1.00
H2       0.53830    0.27694    0.90782   1.00
H2       0.78654    0.27847    0.95708   1.00
H2       0.50959    0.25247    0.94248   1.00
H2       0.81363    0.24265    0.93243   1.00
H2       0.56455    0.20063    0.95027   1.00
H2       0.75598    0.19401    0.94134   1.00
H2       0.59225    0.22609    0.91535   1.00
H2       0.72994    0.23080    0.96592   1.00
H2       0.61245    0.21596    0.96172   1.00
H2       0.70885    0.20730    0.92514   1.00
H2       0.54542    0.28386    1.01775   1.00
H2       0.77883    0.24985    0.85075   1.00
H2       0.53525    0.23437    1.00798   1.00
H2       0.78649    0.20572    0.87607   1.00
H2       0.58239    0.24834    1.02311   1.00
H2       0.74002    0.21649    0.85683   1.00
C4       0.41979    0.18475    0.91490   1.00
C4       0.42068    0.14309    0.91363   1.00
C3       0.42301    0.20603    0.95047   1.00
C3       0.42895    0.11996    0.94718   1.00
C3       0.41547    0.20646    0.87952   1.00
C3       0.41316    0.12330    0.87767   1.00
C2       0.41991    0.26905    0.91730   1.00
C2       0.42062    0.05878    0.91154   1.00
C3       0.42328    0.24689    0.95170   1.00
C3       0.42874    0.07909    0.94629   1.00
C3       0.41609    0.24804    0.88200   1.00
C3       0.41301    0.08164    0.87805   1.00
H1       0.42490    0.19263    0.97688   1.00
H1       0.43581    0.13194    0.97344   1.00
C5       0.41046    0.18665    0.84299   1.00
C5       0.40627    0.14502    0.84257   1.00
H1       0.42585    0.26049    0.97828   1.00
H1       0.43478    0.06409    0.97153   1.00
H1       0.41337    0.26448    0.85745   1.00
H1       0.40751    0.06652    0.85312   1.00
C6       0.41010    0.20985    0.80539   1.00
C6       0.39425    0.12381    0.80571   1.00
H2       0.43333    0.23155    0.80635   1.00
H2       0.37240    0.10190    0.81300   1.00
H2       0.41891    0.19214    0.78060   1.00
H2       0.37806    0.14272    0.78606   1.00
C6       0.36952    0.22894    0.79636   1.00
C6       0.42958    0.10558    0.78308   1.00
H2       0.35775    0.24208    0.82294   1.00
H2       0.44919    0.09117    0.80370   1.00
C6       0.36787    0.26041    0.76329   1.00
C6       0.42017    0.07589    0.74965   1.00
H2       0.34923    0.20551    0.78889   1.00
H2       0.44656    0.12954    0.77068   1.00
C6       0.39107    0.29765    0.77446   1.00
C6       0.40151    0.03792    0.76576   1.00
C6       0.38358    0.24426    0.72410   1.00
C6       0.39278    0.09393    0.71854   1.00
C6       0.32466    0.27255    0.75708   1.00
C6       0.45896    0.06446    0.72919   1.00
H2       0.38109    0.30942    0.80235   1.00
H2       0.41986    0.02480    0.78828   1.00
H2       0.42218    0.29170    0.77694   1.00
H2       0.37292    0.04346    0.77847   1.00
H2       0.38752    0.32041    0.75247   1.00
H2       0.39757    0.01637    0.74265   1.00
H2       0.37973    0.26545    0.70063   1.00
H2       0.38866    0.07402    0.69401   1.00
H2       0.41465    0.23775    0.72609   1.00
H2       0.36408    0.10006    0.73080   1.00
H2       0.36828    0.21755    0.71596   1.00
H2       0.40486    0.12115    0.70730   1.00
H2       0.31225    0.28458    0.78386   1.00
H2       0.47925    0.05117    0.74985   1.00
H2       0.32202    0.29475    0.73437   1.00
H2       0.45393    0.04351    0.70572   1.00
H2       0.30689    0.24761    0.74834   1.00
H2       0.47317    0.08998    0.71649   1.00
C4       0.41490    0.41979    0.68475   1.00
C4       0.41363    0.42068    0.64309   1.00
C3       0.45047    0.42301    0.70603   1.00
C3       0.44718    0.42895    0.61996   1.00
C3       0.37952    0.41547    0.70646   1.00
C3       0.37767    0.41316    0.62330   1.00
C2       0.41730    0.41991    0.76905   1.00
C2       0.41154    0.42062    0.55878   1.00
C3       0.45170    0.42328    0.74689   1.00
C3       0.44629    0.42874    0.57909   1.00
C3       0.38200    0.41609    0.74804   1.00
C3       0.37805    0.41301    0.58164   1.00
H1       0.47688    0.42490    0.69263   1.00
H1       0.47344    0.43581    0.63194   1.00
C5       0.34299    0.41046    0.68665   1.00
C5       0.34257    0.40627    0.64502   1.00
H1       0.47828    0.42585    0.76049   1.00
H1       0.47153    0.43478    0.56409   1.00
H1       0.35745    0.41337    0.76448   1.00
H1       0.35312    0.40751    0.56652   1.00
C6       0.30539    0.41010    0.70985   1.00
C6       0.30571    0.39425    0.62381   1.00
H2       0.30635    0.43333    0.73155   1.00
H2       0.31300    0.37240    0.60190   1.00
H2       0.28060    0.41891    0.69214   1.00
H2       0.28606    0.37806    0.64272   1.00
C6       0.29636    0.36952    0.72894   1.00
C6       0.28308    0.42958    0.60558   1.00
H2       0.32294    0.35775    0.74208   1.00
H2       0.30370    0.44919    0.59117   1.00
C6       0.26329    0.36787    0.76041   1.00
C6       0.24965    0.42017    0.57589   1.00
H2       0.28889    0.34923    0.70551   1.00
H2       0.27068    0.44656    0.62954   1.00
C6       0.27446    0.39107    0.79765   1.00
C6       0.26576    0.40151    0.53792   1.00
C6       0.22410    0.38358    0.74426   1.00
C6       0.21854    0.39278    0.59393   1.00
C6       0.25708    0.32466    0.77255   1.00
C6       0.22919    0.45896    0.56446   1.00
H2       0.30235    0.38109    0.80942   1.00
H2       0.28828    0.41986    0.52480   1.00
H2       0.27694    0.42218    0.79170   1.00
H2       0.27847    0.37292    0.54346   1.00
H2       0.25247    0.38752    0.82041   1.00
H2       0.24265    0.39757    0.51637   1.00
H2       0.20063    0.37973    0.76545   1.00
H2       0.19401    0.38866    0.57402   1.00
H2       0.22609    0.41465    0.73775   1.00
H2       0.23080    0.36408    0.60006   1.00
H2       0.21596    0.36828    0.71755   1.00
H2       0.20730    0.40486    0.62115   1.00
H2       0.28386    0.31225    0.78458   1.00
H2       0.24985    0.47925    0.55117   1.00
H2       0.23437    0.32202    0.79475   1.00
H2       0.20572    0.45393    0.54351   1.00
H2       0.24834    0.30689    0.74761   1.00
H2       0.21649    0.47317    0.58998   1.00
C4       0.41490    0.91021    0.64525   1.00
C4       0.41363    0.90932    0.68691   1.00
C3       0.45047    0.90699    0.62397   1.00
C3       0.44718    0.90105    0.71004   1.00
C3       0.37952    0.91453    0.62354   1.00
C3       0.37767    0.91684    0.70670   1.00
C2       0.41730    0.91009    0.56095   1.00
C2       0.41154    0.90938    0.77122   1.00
C3       0.45170    0.90672    0.58311   1.00
C3       0.44629    0.90126    0.75091   1.00
C3       0.38200    0.91391    0.58196   1.00
C3       0.37805    0.91699    0.74836   1.00
H1       0.47688    0.90510    0.63737   1.00
H1       0.47344    0.89419    0.69806   1.00
C5       0.34299    0.91954    0.64335   1.00
C5       0.34257    0.92373    0.68498   1.00
H1       0.47828    0.90415    0.56951   1.00
H1       0.47153    0.89522    0.76591   1.00
H1       0.35745    0.91663    0.56552   1.00
H1       0.35312    0.92249    0.76348   1.00
C6       0.30539    0.91990    0.62015   1.00
C6       0.30571    0.93575    0.70619   1.00
H2       0.30635    0.89667    0.59845   1.00
H2       0.31300    0.95760    0.72810   1.00
H2       0.28060    0.91109    0.63786   1.00
H2       0.28606    0.95194    0.68728   1.00
C6       0.29636    0.96048    0.60106   1.00
C6       0.28308    0.90042    0.72442   1.00
H2       0.32294    0.97225    0.58792   1.00
H2       0.30370    0.88081    0.73883   1.00
C6       0.26329    0.96213    0.56959   1.00
C6       0.24965    0.90983    0.75411   1.00
H2       0.28889    0.98077    0.62449   1.00
H2       0.27068    0.88344    0.70046   1.00
C6       0.27446    0.93893    0.53235   1.00
C6       0.26576    0.92849    0.79208   1.00
C6       0.22410    0.94642    0.58574   1.00
C6       0.21854    0.93722    0.73607   1.00
C6       0.25708    1.00534    0.55745   1.00
C6       0.22919    0.87104    0.76554   1.00
H2       0.30235    0.94891    0.52058   1.00
H2       0.28828    0.91014    0.80520   1.00
H2       0.27694    0.90782    0.53830   1.00
H2       0.27847    0.95708    0.78654   1.00
H2       0.25247    0.94248    0.50959   1.00
H2       0.24265    0.93243    0.81363   1.00
H2       0.20063    0.95027    0.56455   1.00
H2       0.19401    0.94134    0.75598   1.00
H2       0.22609    0.91535    0.59225   1.00
H2       0.23080    0.96592    0.72994   1.00
H2       0.21596    0.96172    0.61245   1.00
H2       0.20730    0.92514    0.70885   1.00
H2       0.28386    1.01775    0.54542   1.00
H2       0.24985    0.85075    0.77883   1.00
H2       0.23437    1.00798    0.53525   1.00
H2       0.20572    0.87607    0.78649   1.00
H2       0.24834    1.02311    0.58239   1.00
H2       0.21649    0.85683    0.74002   1.00
C4       0.41021    1.14525    0.41490   1.00
C4       0.40932    1.18691    0.41363   1.00
C3       0.40699    1.12397    0.45047   1.00
C3       0.40105    1.21004    0.44718   1.00
C3       0.41453    1.12354    0.37952   1.00
C3       0.41684    1.20670    0.37767   1.00
C2       0.41009    1.06095    0.41730   1.00
C2       0.40938    1.27122    0.41154   1.00
C3       0.40672    1.08311    0.45170   1.00
C3       0.40126    1.25091    0.44629   1.00
C3       0.41391    1.08196    0.38200   1.00
C3       0.41699    1.24836    0.37805   1.00
H1       0.40510    1.13737    0.47688   1.00
H1       0.39419    1.19806    0.47344   1.00
C5       0.41954    1.14335    0.34299   1.00
C5       0.42373    1.18498    0.34257   1.00
H1       0.40415    1.06951    0.47828   1.00
H1       0.39522    1.26591    0.47153   1.00
H1       0.41663    1.06552    0.35745   1.00
H1       0.42249    1.26348    0.35312   1.00
C6       0.41990    1.12015    0.30539   1.00
C6       0.43575    1.20619    0.30571   1.00
H2       0.39667    1.09845    0.30635   1.00
H2       0.45760    1.22810    0.31300   1.00
H2       0.41109    1.13786    0.28060   1.00
H2       0.45194    1.18728    0.28606   1.00
C6       0.46048    1.10106    0.29636   1.00
C6       0.40042    1.22442    0.28308   1.00
H2       0.47225    1.08792    0.32294   1.00
H2       0.38081    1.23883    0.30370   1.00
C6       0.46213    1.06959    0.26329   1.00
C6       0.40983    1.25411    0.24965   1.00
H2       0.48077    1.12449    0.28889   1.00
H2       0.38344    1.20046    0.27068   1.00
C6       0.43893    1.03235    0.27446   1.00
C6       0.42849    1.29208    0.26576   1.00
C6       0.44642    1.08574    0.22410   1.00
C6       0.43722    1.23607    0.21854   1.00
C6       0.50534    1.05745    0.25708   1.00
C6       0.37104    1.26554    0.22919   1.00
H2       0.44891    1.02058    0.30235   1.00
H2       0.41014    1.30520    0.28828   1.00
H2       0.40782    1.03830    0.27694   1.00
H2       0.45708    1.28654    0.27847   1.00
H2       0.44248    1.00959    0.25247   1.00
H2       0.43243    1.31363    0.24265   1.00
H2       0.45027    1.06455    0.20063   1.00
H2       0.44134    1.25598    0.19401   1.00
H2       0.41535    1.09225    0.22609   1.00
H2       0.46592    1.22994    0.23080   1.00
H2       0.46172    1.11245    0.21596   1.00
H2       0.42514    1.20885    0.20730   1.00
H2       0.51775    1.04542    0.28386   1.00
H2       0.35075    1.27883    0.24985   1.00
H2       0.50798    1.03525    0.23437   1.00
H2       0.37607    1.28649    0.20572   1.00
H2       0.52311    1.08239    0.24834   1.00
H2       0.35683    1.24002    0.21649   1.00
C4       0.18475    0.91490    0.41979   1.00
C4       0.14309    0.91363    0.42068   1.00
C3       0.20603    0.95047    0.42301   1.00
C3       0.11996    0.94718    0.42895   1.00
C3       0.20646    0.87952    0.41547   1.00
C3       0.12330    0.87767    0.41316   1.00
C2       0.26905    0.91730    0.41991   1.00
C2       0.05878    0.91154    0.42062   1.00
C3       0.24689    0.95170    0.42328   1.00
C3       0.07909    0.94629    0.42874   1.00
C3       0.24804    0.88200    0.41609   1.00
C3       0.08164    0.87805    0.41301   1.00
H1       0.19263    0.97688    0.42490   1.00
H1       0.13194    0.97344    0.43581   1.00
C5       0.18665    0.84299    0.41046   1.00
C5       0.14502    0.84257    0.40627   1.00
H1       0.26049    0.97828    0.42585   1.00
H1       0.06409    0.97153    0.43478   1.00
H1       0.26448    0.85745    0.41337   1.00
H1       0.06652    0.85312    0.40751   1.00
C6       0.20985    0.80539    0.41010   1.00
C6       0.12381    0.80571    0.39425   1.00
H2       0.23155    0.80635    0.43333   1.00
H2       0.10190    0.81300    0.37240   1.00
H2       0.19214    0.78060    0.41891   1.00
H2       0.14272    0.78606    0.37806   1.00
C6       0.22894    0.79636    0.36952   1.00
C6       0.10558    0.78308    0.42958   1.00
H2       0.24208    0.82294    0.35775   1.00
H2       0.09117    0.80370    0.44919   1.00
C6       0.26041    0.76329    0.36787   1.00
C6       0.07589    0.74965    0.42017   1.00
H2       0.20551    0.78889    0.34923   1.00
H2       0.12954    0.77068    0.44656   1.00
C6       0.29765    0.77446    0.39107   1.00
C6       0.03792    0.76576    0.40151   1.00
C6       0.24426    0.72410    0.38358   1.00
C6       0.09393    0.71854    0.39278   1.00
C6       0.27255    0.75708    0.32466   1.00
C6       0.06446    0.72919    0.45896   1.00
H2       0.30942    0.80235    0.38109   1.00
H2       0.02480    0.78828    0.41986   1.00
H2       0.29170    0.77694    0.42218   1.00
H2       0.04346    0.77847    0.37292   1.00
H2       0.32041    0.75247    0.38752   1.00
H2       0.01637    0.74265    0.39757   1.00
H2       0.26545    0.70063    0.37973   1.00
H2       0.07402    0.69401    0.38866   1.00
H2       0.23775    0.72609    0.41465   1.00
H2       0.10006    0.73080    0.36408   1.00
H2       0.21755    0.71596    0.36828   1.00
H2       0.12115    0.70730    0.40486   1.00
H2       0.28458    0.78386    0.31225   1.00
H2       0.05117    0.74985    0.47925   1.00
H2       0.29475    0.73437    0.32202   1.00
H2       0.04351    0.70572    0.45393   1.00
H2       0.24761    0.74834    0.30689   1.00
H2       0.08998    0.71649    0.47317   1.00
C4       0.64525    0.91490    0.41021   1.00
C4       0.68691    0.91363    0.40932   1.00
C3       0.62397    0.95047    0.40699   1.00
C3       0.71004    0.94718    0.40105   1.00
C3       0.62354    0.87952    0.41453   1.00
C3       0.70670    0.87767    0.41684   1.00
C2       0.56095    0.91730    0.41009   1.00
C2       0.77122    0.91154    0.40938   1.00
C3       0.58311    0.95170    0.40672   1.00
C3       0.75091    0.94629    0.40126   1.00
C3       0.58196    0.88200    0.41391   1.00
C3       0.74836    0.87805    0.41699   1.00
H1       0.63737    0.97688    0.40510   1.00
H1       0.69806    0.97344    0.39419   1.00
C5       0.64335    0.84299    0.41954   1.00
C5       0.68498    0.84257    0.42373   1.00
H1       0.56951    0.97828    0.40415   1.00
H1       0.76591    0.97153    0.39522   1.00
H1       0.56552    0.85745    0.41663   1.00
H1       0.76348    0.85312    0.42249   1.00
C6       0.62015    0.80539    0.41990   1.00
C6       0.70619    0.80571    0.43575   1.00
H2       0.59845    0.80635    0.39667   1.00
H2       0.72810    0.81300    0.45760   1.00
H2       0.63786    0.78060    0.41109   1.00
H2       0.68728    0.78606    0.45194   1.00
C6       0.60106    0.79636    0.46048   1.00
C6       0.72442    0.78308    0.40042   1.00
H2       0.58792    0.82294    0.47225   1.00
H2       0.73883    0.80370    0.38081   1.00
C6       0.56959    0.76329    0.46213   1.00
C6       0.75411    0.74965    0.40983   1.00
H2       0.62449    0.78889    0.48077   1.00
H2       0.70046    0.77068    0.38344   1.00
C6       0.53235    0.77446    0.43893   1.00
C6       0.79208    0.76576    0.42849   1.00
C6       0.58574    0.72410    0.44642   1.00
C6       0.73607    0.71854    0.43722   1.00
C6       0.55745    0.75708    0.50534   1.00
C6       0.76554    0.72919    0.37104   1.00
H2       0.52058    0.80235    0.44891   1.00
H2       0.80520    0.78828    0.41014   1.00
H2       0.53830    0.77694    0.40782   1.00
H2       0.78654    0.77847    0.45708   1.00
H2       0.50959    0.75247    0.44248   1.00
H2       0.81363    0.74265    0.43243   1.00
H2       0.56455    0.70063    0.45027   1.00
H2       0.75598    0.69401    0.44134   1.00
H2       0.59225    0.72609    0.41535   1.00
H2       0.72994    0.73080    0.46592   1.00
H2       0.61245    0.71596    0.46172   1.00
H2       0.70885    0.70730    0.42514   1.00
H2       0.54542    0.78386    0.51775   1.00
H2       0.77883    0.74985    0.35075   1.00
H2       0.53525    0.73437    0.50798   1.00
H2       0.78649    0.70572    0.37607   1.00
H2       0.58239    0.74834    0.52311   1.00
H2       0.74002    0.71649    0.35683   1.00
C4       0.41979    0.68475    0.41490   1.00
C4       0.42068    0.64309    0.41363   1.00
C3       0.42301    0.70603    0.45047   1.00
C3       0.42895    0.61996    0.44718   1.00
C3       0.41547    0.70646    0.37952   1.00
C3       0.41316    0.62330    0.37767   1.00
C2       0.41991    0.76905    0.41730   1.00
C2       0.42062    0.55878    0.41154   1.00
C3       0.42328    0.74689    0.45170   1.00
C3       0.42874    0.57909    0.44629   1.00
C3       0.41609    0.74804    0.38200   1.00
C3       0.41301    0.58164    0.37805   1.00
H1       0.42490    0.69263    0.47688   1.00
H1       0.43581    0.63194    0.47344   1.00
C5       0.41046    0.68665    0.34299   1.00
C5       0.40627    0.64502    0.34257   1.00
H1       0.42585    0.76049    0.47828   1.00
H1       0.43478    0.56409    0.47153   1.00
H1       0.41337    0.76448    0.35745   1.00
H1       0.40751    0.56652    0.35312   1.00
C6       0.41010    0.70985    0.30539   1.00
C6       0.39425    0.62381    0.30571   1.00
H2       0.43333    0.73155    0.30635   1.00
H2       0.37240    0.60190    0.31300   1.00
H2       0.41891    0.69214    0.28060   1.00
H2       0.37806    0.64272    0.28606   1.00
C6       0.36952    0.72894    0.29636   1.00
C6       0.42958    0.60558    0.28308   1.00
H2       0.35775    0.74208    0.32294   1.00
H2       0.44919    0.59117    0.30370   1.00
C6       0.36787    0.76041    0.26329   1.00
C6       0.42017    0.57589    0.24965   1.00
H2       0.34923    0.70551    0.28889   1.00
H2       0.44656    0.62954    0.27068   1.00
C6       0.39107    0.79765    0.27446   1.00
C6       0.40151    0.53792    0.26576   1.00
C6       0.38358    0.74426    0.22410   1.00
C6       0.39278    0.59393    0.21854   1.00
C6       0.32466    0.77255    0.25708   1.00
C6       0.45896    0.56446    0.22919   1.00
H2       0.38109    0.80942    0.30235   1.00
H2       0.41986    0.52480    0.28828   1.00
H2       0.42218    0.79170    0.27694   1.00
H2       0.37292    0.54346    0.27847   1.00
H2       0.38752    0.82041    0.25247   1.00
H2       0.39757    0.51637    0.24265   1.00
H2       0.37973    0.76545    0.20063   1.00
H2       0.38866    0.57402    0.19401   1.00
H2       0.41465    0.73775    0.22609   1.00
H2       0.36408    0.60006    0.23080   1.00
H2       0.36828    0.71755    0.21596   1.00
H2       0.40486    0.62115    0.20730   1.00
H2       0.31225    0.78458    0.28386   1.00
H2       0.47925    0.55117    0.24985   1.00
H2       0.32202    0.79475    0.23437   1.00
H2       0.45393    0.54351    0.20572   1.00
H2       0.30689    0.74761    0.24834   1.00
H2       0.47317    0.58998    0.21649   1.00
C4       0.41490    0.91979    0.18475   1.00
C4       0.41363    0.92068    0.14309   1.00
C3       0.45047    0.92301    0.20603   1.00
C3       0.44718    0.92895    0.11996   1.00
C3       0.37952    0.91547    0.20646   1.00
C3       0.37767    0.91316    0.12330   1.00
C2       0.41730    0.91991    0.26905   1.00
C2       0.41154    0.92062    0.05878   1.00
C3       0.45170    0.92328    0.24689   1.00
C3       0.44629    0.92874    0.07909   1.00
C3       0.38200    0.91609    0.24804   1.00
C3       0.37805    0.91301    0.08164   1.00
H1       0.47688    0.92490    0.19263   1.00
H1       0.47344    0.93581    0.13194   1.00
C5       0.34299    0.91046    0.18665   1.00
C5       0.34257    0.90627    0.14502   1.00
H1       0.47828    0.92585    0.26049   1.00
H1       0.47153    0.93478    0.06409   1.00
H1       0.35745    0.91337    0.26448   1.00
H1       0.35312    0.90751    0.06652   1.00
C6       0.30539    0.91010    0.20985   1.00
C6       0.30571    0.89425    0.12381   1.00
H2       0.30635    0.93333    0.23155   1.00
H2       0.31300    0.87240    0.10190   1.00
H2       0.28060    0.91891    0.19214   1.00
H2       0.28606    0.87806    0.14272   1.00
C6       0.29636    0.86952    0.22894   1.00
C6       0.28308    0.92958    0.10558   1.00
H2       0.32294    0.85775    0.24208   1.00
H2       0.30370    0.94919    0.09117   1.00
C6       0.26329    0.86787    0.26041   1.00
C6       0.24965    0.92017    0.07589   1.00
H2       0.28889    0.84923    0.20551   1.00
H2       0.27068    0.94656    0.12954   1.00
C6       0.27446    0.89107    0.29765   1.00
C6       0.26576    0.90151    0.03792   1.00
C6       0.22410    0.88358    0.24426   1.00
C6       0.21854    0.89278    0.09393   1.00
C6       0.25708    0.82466    0.27255   1.00
C6       0.22919    0.95896    0.06446   1.00
H2       0.30235    0.88109    0.30942   1.00
H2       0.28828    0.91986    0.02480   1.00
H2       0.27694    0.92218    0.29170   1.00
H2       0.27847    0.87292    0.04346   1.00
H2       0.25247    0.88752    0.32041   1.00
H2       0.24265    0.89757    0.01637   1.00
H2       0.20063    0.87973    0.26545   1.00
H2       0.19401    0.88866    0.07402   1.00
H2       0.22609    0.91465    0.23775   1.00
H2       0.23080    0.86408    0.10006   1.00
H2       0.21596    0.86828    0.21755   1.00
H2       0.20730    0.90486    0.12115   1.00
H2       0.28386    0.81225    0.28458   1.00
H2       0.24985    0.97925    0.05117   1.00
H2       0.23437    0.82202    0.29475   1.00
H2       0.20572    0.95393    0.04351   1.00
H2       0.24834    0.80689    0.24761   1.00
H2       0.21649    0.97317    0.08998   1.00
C4       0.91490    0.41021    0.64525   1.00
C4       0.91363    0.40932    0.68691   1.00
C3       0.95047    0.40699    0.62397   1.00
C3       0.94718    0.40105    0.71004   1.00
C3       0.87952    0.41453    0.62354   1.00
C3       0.87767    0.41684    0.70670   1.00
C2       0.91730    0.41009    0.56095   1.00
C2       0.91154    0.40938    0.77122   1.00
C3       0.95170    0.40672    0.58311   1.00
C3       0.94629    0.40126    0.75091   1.00
C3       0.88200    0.41391    0.58196   1.00
C3       0.87805    0.41699    0.74836   1.00
H1       0.97688    0.40510    0.63737   1.00
H1       0.97344    0.39419    0.69806   1.00
C5       0.84299    0.41954    0.64335   1.00
C5       0.84257    0.42373    0.68498   1.00
H1       0.97828    0.40415    0.56951   1.00
H1       0.97153    0.39522    0.76591   1.00
H1       0.85745    0.41663    0.56552   1.00
H1       0.85312    0.42249    0.76348   1.00
C6       0.80539    0.41990    0.62015   1.00
C6       0.80571    0.43575    0.70619   1.00
H2       0.80635    0.39667    0.59845   1.00
H2       0.81300    0.45760    0.72810   1.00
H2       0.78060    0.41109    0.63786   1.00
H2       0.78606    0.45194    0.68728   1.00
C6       0.79636    0.46048    0.60106   1.00
C6       0.78308    0.40042    0.72442   1.00
H2       0.82294    0.47225    0.58792   1.00
H2       0.80370    0.38081    0.73883   1.00
C6       0.76329    0.46213    0.56959   1.00
C6       0.74965    0.40983    0.75411   1.00
H2       0.78889    0.48077    0.62449   1.00
H2       0.77068    0.38344    0.70046   1.00
C6       0.77446    0.43893    0.53235   1.00
C6       0.76576    0.42849    0.79208   1.00
C6       0.72410    0.44642    0.58574   1.00
C6       0.71854    0.43722    0.73607   1.00
C6       0.75708    0.50534    0.55745   1.00
C6       0.72919    0.37104    0.76554   1.00
H2       0.80235    0.44891    0.52058   1.00
H2       0.78828    0.41014    0.80520   1.00
H2       0.77694    0.40782    0.53830   1.00
H2       0.77847    0.45708    0.78654   1.00
H2       0.75247    0.44248    0.50959   1.00
H2       0.74265    0.43243    0.81363   1.00
H2       0.70063    0.45027    0.56455   1.00
H2       0.69401    0.44134    0.75598   1.00
H2       0.72609    0.41535    0.59225   1.00
H2       0.73080    0.46592    0.72994   1.00
H2       0.71596    0.46172    0.61245   1.00
H2       0.70730    0.42514    0.70885   1.00
H2       0.78386    0.51775    0.54542   1.00
H2       0.74985    0.35075    0.77883   1.00
H2       0.73437    0.50798    0.53525   1.00
H2       0.70572    0.37607    0.78649   1.00
H2       0.74834    0.52311    0.58239   1.00
H2       0.71649    0.35683    0.74002   1.00
C4       0.91021    0.64525    0.41490   1.00
C4       0.90932    0.68691    0.41363   1.00
C3       0.90699    0.62397    0.45047   1.00
C3       0.90105    0.71004    0.44718   1.00
C3       0.91453    0.62354    0.37952   1.00
C3       0.91684    0.70670    0.37767   1.00
C2       0.91009    0.56095    0.41730   1.00
C2       0.90938    0.77122    0.41154   1.00
C3       0.90672    0.58311    0.45170   1.00
C3       0.90126    0.75091    0.44629   1.00
C3       0.91391    0.58196    0.38200   1.00
C3       0.91699    0.74836    0.37805   1.00
H1       0.90510    0.63737    0.47688   1.00
H1       0.89419    0.69806    0.47344   1.00
C5       0.91954    0.64335    0.34299   1.00
C5       0.92373    0.68498    0.34257   1.00
H1       0.90415    0.56951    0.47828   1.00
H1       0.89522    0.76591    0.47153   1.00
H1       0.91663    0.56552    0.35745   1.00
H1       0.92249    0.76348    0.35312   1.00
C6       0.91990    0.62015    0.30539   1.00
C6       0.93575    0.70619    0.30571   1.00
H2       0.89667    0.59845    0.30635   1.00
H2       0.95760    0.72810    0.31300   1.00
H2       0.91109    0.63786    0.28060   1.00
H2       0.95194    0.68728    0.28606   1.00
C6       0.96048    0.60106    0.29636   1.00
C6       0.90042    0.72442    0.28308   1.00
H2       0.97225    0.58792    0.32294   1.00
H2       0.88081    0.73883    0.30370   1.00
C6       0.96213    0.56959    0.26329   1.00
C6       0.90983    0.75411    0.24965   1.00
H2       0.98077    0.62449    0.28889   1.00
H2       0.88344    0.70046    0.27068   1.00
C6       0.93893    0.53235    0.27446   1.00
C6       0.92849    0.79208    0.26576   1.00
C6       0.94642    0.58574    0.22410   1.00
C6       0.93722    0.73607    0.21854   1.00
C6       1.00534    0.55745    0.25708   1.00
C6       0.87104    0.76554    0.22919   1.00
H2       0.94891    0.52058    0.30235   1.00
H2       0.91014    0.80520    0.28828   1.00
H2       0.90782    0.53830    0.27694   1.00
H2       0.95708    0.78654    0.27847   1.00
H2       0.94248    0.50959    0.25247   1.00
H2       0.93243    0.81363    0.24265   1.00
H2       0.95027    0.56455    0.20063   1.00
H2       0.94134    0.75598    0.19401   1.00
H2       0.91535    0.59225    0.22609   1.00
H2       0.96592    0.72994    0.23080   1.00
H2       0.96172    0.61245    0.21596   1.00
H2       0.92514    0.70885    0.20730   1.00
H2       1.01775    0.54542    0.28386   1.00
H2       0.85075    0.77883    0.24985   1.00
H2       1.00798    0.53525    0.23437   1.00
H2       0.87607    0.78649    0.20572   1.00
H2       1.02311    0.58239    0.24834   1.00
H2       0.85683    0.74002    0.21649   1.00
C4       0.68475    0.41490    0.41979   1.00
C4       0.64309    0.41363    0.42068   1.00
C3       0.70603    0.45047    0.42301   1.00
C3       0.61996    0.44718    0.42895   1.00
C3       0.70646    0.37952    0.41547   1.00
C3       0.62330    0.37767    0.41316   1.00
C2       0.76905    0.41730    0.41991   1.00
C2       0.55878    0.41154    0.42062   1.00
C3       0.74689    0.45170    0.42328   1.00
C3       0.57909    0.44629    0.42874   1.00
C3       0.74804    0.38200    0.41609   1.00
C3       0.58164    0.37805    0.41301   1.00
H1       0.69263    0.47688    0.42490   1.00
H1       0.63194    0.47344    0.43581   1.00
C5       0.68665    0.34299    0.41046   1.00
C5       0.64502    0.34257    0.40627   1.00
H1       0.76049    0.47828    0.42585   1.00
H1       0.56409    0.47153    0.43478   1.00
H1       0.76448    0.35745    0.41337   1.00
H1       0.56652    0.35312    0.40751   1.00
C6       0.70985    0.30539    0.41010   1.00
C6       0.62381    0.30571    0.39425   1.00
H2       0.73155    0.30635    0.43333   1.00
H2       0.60190    0.31300    0.37240   1.00
H2       0.69214    0.28060    0.41891   1.00
H2       0.64272    0.28606    0.37806   1.00
C6       0.72894    0.29636    0.36952   1.00
C6       0.60558    0.28308    0.42958   1.00
H2       0.74208    0.32294    0.35775   1.00
H2       0.59117    0.30370    0.44919   1.00
C6       0.76041    0.26329    0.36787   1.00
C6       0.57589    0.24965    0.42017   1.00
H2       0.70551    0.28889    0.34923   1.00
H2       0.62954    0.27068    0.44656   1.00
C6       0.79765    0.27446    0.39107   1.00
C6       0.53792    0.26576    0.40151   1.00
C6       0.74426    0.22410    0.38358   1.00
C6       0.59393    0.21854    0.39278   1.00
C6       0.77255    0.25708    0.32466   1.00
C6       0.56446    0.22919    0.45896   1.00
H2       0.80942    0.30235    0.38109   1.00
H2       0.52480    0.28828    0.41986   1.00
H2       0.79170    0.27694    0.42218   1.00
H2       0.54346    0.27847    0.37292   1.00
H2       0.82041    0.25247    0.38752   1.00
H2       0.51637    0.24265    0.39757   1.00
H2       0.76545    0.20063    0.37973   1.00
H2       0.57402    0.19401    0.38866   1.00
H2       0.73775    0.22609    0.41465   1.00
H2       0.60006    0.23080    0.36408   1.00
H2       0.71755    0.21596    0.36828   1.00
H2       0.62115    0.20730    0.40486   1.00
H2       0.78458    0.28386    0.31225   1.00
H2       0.55117    0.24985    0.47925   1.00
H2       0.79475    0.23437    0.32202   1.00
H2       0.54351    0.20572    0.45393   1.00
H2       0.74761    0.24834    0.30689   1.00
H2       0.58998    0.21649    0.47317   1.00
C4       1.14525    0.41490    0.41021   1.00
C4       1.18691    0.41363    0.40932   1.00
C3       1.12397    0.45047    0.40699   1.00
C3       1.21004    0.44718    0.40105   1.00
C3       1.12354    0.37952    0.41453   1.00
C3       1.20670    0.37767    0.41684   1.00
C2       1.06095    0.41730    0.41009   1.00
C2       1.27122    0.41154    0.40938   1.00
C3       1.08311    0.45170    0.40672   1.00
C3       1.25091    0.44629    0.40126   1.00
C3       1.08196    0.38200    0.41391   1.00
C3       1.24836    0.37805    0.41699   1.00
H1       1.13737    0.47688    0.40510   1.00
H1       1.19806    0.47344    0.39419   1.00
C5       1.14335    0.34299    0.41954   1.00
C5       1.18498    0.34257    0.42373   1.00
H1       1.06951    0.47828    0.40415   1.00
H1       1.26591    0.47153    0.39522   1.00
H1       1.06552    0.35745    0.41663   1.00
H1       1.26348    0.35312    0.42249   1.00
C6       1.12015    0.30539    0.41990   1.00
C6       1.20619    0.30571    0.43575   1.00
H2       1.09845    0.30635    0.39667   1.00
H2       1.22810    0.31300    0.45760   1.00
H2       1.13786    0.28060    0.41109   1.00
H2       1.18728    0.28606    0.45194   1.00
C6       1.10106    0.29636    0.46048   1.00
C6       1.22442    0.28308    0.40042   1.00
H2       1.08792    0.32294    0.47225   1.00
H2       1.23883    0.30370    0.38081   1.00
C6       1.06959    0.26329    0.46213   1.00
C6       1.25411    0.24965    0.40983   1.00
H2       1.12449    0.28889    0.48077   1.00
H2       1.20046    0.27068    0.38344   1.00
C6       1.03235    0.27446    0.43893   1.00
C6       1.29208    0.26576    0.42849   1.00
C6       1.08574    0.22410    0.44642   1.00
C6       1.23607    0.21854    0.43722   1.00
C6       1.05745    0.25708    0.50534   1.00
C6       1.26554    0.22919    0.37104   1.00
H2       1.02058    0.30235    0.44891   1.00
H2       1.30520    0.28828    0.41014   1.00
H2       1.03830    0.27694    0.40782   1.00
H2       1.28654    0.27847    0.45708   1.00
H2       1.00959    0.25247    0.44248   1.00
H2       1.31363    0.24265    0.43243   1.00
H2       1.06455    0.20063    0.45027   1.00
H2       1.25598    0.19401    0.44134   1.00
H2       1.09225    0.22609    0.41535   1.00
H2       1.22994    0.23080    0.46592   1.00
H2       1.11245    0.21596    0.46172   1.00
H2       1.20885    0.20730    0.42514   1.00
H2       1.04542    0.28386    0.51775   1.00
H2       1.27883    0.24985    0.35075   1.00
H2       1.03525    0.23437    0.50798   1.00
H2       1.28649    0.20572    0.37607   1.00
H2       1.08239    0.24834    0.52311   1.00
H2       1.24002    0.21649    0.35683   1.00
C4       0.91979    0.18475    0.41490   1.00
C4       0.92068    0.14309    0.41363   1.00
C3       0.92301    0.20603    0.45047   1.00
C3       0.92895    0.11996    0.44718   1.00
C3       0.91547    0.20646    0.37952   1.00
C3       0.91316    0.12330    0.37767   1.00
C2       0.91991    0.26905    0.41730   1.00
C2       0.92062    0.05878    0.41154   1.00
C3       0.92328    0.24689    0.45170   1.00
C3       0.92874    0.07909    0.44629   1.00
C3       0.91609    0.24804    0.38200   1.00
C3       0.91301    0.08164    0.37805   1.00
H1       0.92490    0.19263    0.47688   1.00
H1       0.93581    0.13194    0.47344   1.00
C5       0.91046    0.18665    0.34299   1.00
C5       0.90627    0.14502    0.34257   1.00
H1       0.92585    0.26049    0.47828   1.00
H1       0.93478    0.06409    0.47153   1.00
H1       0.91337    0.26448    0.35745   1.00
H1       0.90751    0.06652    0.35312   1.00
C6       0.91010    0.20985    0.30539   1.00
C6       0.89425    0.12381    0.30571   1.00
H2       0.93333    0.23155    0.30635   1.00
H2       0.87240    0.10190    0.31300   1.00
H2       0.91891    0.19214    0.28060   1.00
H2       0.87806    0.14272    0.28606   1.00
C6       0.86952    0.22894    0.29636   1.00
C6       0.92958    0.10558    0.28308   1.00
H2       0.85775    0.24208    0.32294   1.00
H2       0.94919    0.09117    0.30370   1.00
C6       0.86787    0.26041    0.26329   1.00
C6       0.92017    0.07589    0.24965   1.00
H2       0.84923    0.20551    0.28889   1.00
H2       0.94656    0.12954    0.27068   1.00
C6       0.89107    0.29765    0.27446   1.00
C6       0.90151    0.03792    0.26576   1.00
C6       0.88358    0.24426    0.22410   1.00
C6       0.89278    0.09393    0.21854   1.00
C6       0.82466    0.27255    0.25708   1.00
C6       0.95896    0.06446    0.22919   1.00
H2       0.88109    0.30942    0.30235   1.00
H2       0.91986    0.02480    0.28828   1.00
H2       0.92218    0.29170    0.27694   1.00
H2       0.87292    0.04346    0.27847   1.00
H2       0.88752    0.32041    0.25247   1.00
H2       0.89757    0.01637    0.24265   1.00
H2       0.87973    0.26545    0.20063   1.00
H2       0.88866    0.07402    0.19401   1.00
H2       0.91465    0.23775    0.22609   1.00
H2       0.86408    0.10006    0.23080   1.00
H2       0.86828    0.21755    0.21596   1.00
H2       0.90486    0.12115    0.20730   1.00
H2       0.81225    0.28458    0.28386   1.00
H2       0.97925    0.05117    0.24985   1.00
H2       0.82202    0.29475    0.23437   1.00
H2       0.95393    0.04351    0.20572   1.00
H2       0.80689    0.24761    0.24834   1.00
H2       0.97317    0.08998    0.21649   1.00
C4       0.91490    0.41979    0.18475   1.00
C4       0.91363    0.42068    0.14309   1.00
C3       0.95047    0.42301    0.20603   1.00
C3       0.94718    0.42895    0.11996   1.00
C3       0.87952    0.41547    0.20646   1.00
C3       0.87767    0.41316    0.12330   1.00
C2       0.91730    0.41991    0.26905   1.00
C2       0.91154    0.42062    0.05878   1.00
C3       0.95170    0.42328    0.24689   1.00
C3       0.94629    0.42874    0.07909   1.00
C3       0.88200    0.41609    0.24804   1.00
C3       0.87805    0.41301    0.08164   1.00
H1       0.97688    0.42490    0.19263   1.00
H1       0.97344    0.43581    0.13194   1.00
C5       0.84299    0.41046    0.18665   1.00
C5       0.84257    0.40627    0.14502   1.00
H1       0.97828    0.42585    0.26049   1.00
H1       0.97153    0.43478    0.06409   1.00
H1       0.85745    0.41337    0.26448   1.00
H1       0.85312    0.40751    0.06652   1.00
C6       0.80539    0.41010    0.20985   1.00
C6       0.80571    0.39425    0.12381   1.00
H2       0.80635    0.43333    0.23155   1.00
H2       0.81300    0.37240    0.10190   1.00
H2       0.78060    0.41891    0.19214   1.00
H2       0.78606    0.37806    0.14272   1.00
C6       0.79636    0.36952    0.22894   1.00
C6       0.78308    0.42958    0.10558   1.00
H2       0.82294    0.35775    0.24208   1.00
H2       0.80370    0.44919    0.09117   1.00
C6       0.76329    0.36787    0.26041   1.00
C6       0.74965    0.42017    0.07589   1.00
H2       0.78889    0.34923    0.20551   1.00
H2       0.77068    0.44656    0.12954   1.00
C6       0.77446    0.39107    0.29765   1.00
C6       0.76576    0.40151    0.03792   1.00
C6       0.72410    0.38358    0.24426   1.00
C6       0.71854    0.39278    0.09393   1.00
C6       0.75708    0.32466    0.27255   1.00
C6       0.72919    0.45896    0.06446   1.00
H2       0.80235    0.38109    0.30942   1.00
H2       0.78828    0.41986    0.02480   1.00
H2       0.77694    0.42218    0.29170   1.00
H2       0.77847    0.37292    0.04346   1.00
H2       0.75247    0.38752    0.32041   1.00
H2       0.74265    0.39757    0.01637   1.00
H2       0.70063    0.37973    0.26545   1.00
H2       0.69401    0.38866    0.07402   1.00
H2       0.72609    0.41465    0.23775   1.00
H2       0.73080    0.36408    0.10006   1.00
H2       0.71596    0.36828    0.21755   1.00
H2       0.70730    0.40486    0.12115   1.00
H2       0.78386    0.31225    0.28458   1.00
H2       0.74985    0.47925    0.05117   1.00
H2       0.73437    0.32202    0.29475   1.00
H2       0.70572    0.45393    0.04351   1.00
H2       0.74834    0.30689    0.24761   1.00
H2       0.71649    0.47317    0.08998   1.00
