data_IRMOF10_SG202_interpen_Ligand12cp_label_r.

_audit_creation_method             'generated by an auxiliary program of Tobunporous'

_symmetry_space_group_name_H-M     'P 1'
_symmetry_Int_Tables_number        1
_symmetry_cell_setting             triclinic

_cell_length_a                    34.2800
_cell_length_b                    34.2800
_cell_length_c                    34.2800
_cell_angle_alpha                 90.0000
_cell_angle_beta                  90.0000
_cell_angle_gamma                 90.0000

loop_
_atom_site_label
_atom_site_fract_x
_atom_site_fract_y
_atom_site_fract_z
_atom_site_occupancy
O1       0.75000    0.75000    0.75000   1.00
Zn1      0.71720    0.78280    0.78280   1.00
Zn1      0.78280    0.71720    0.78280   1.00
Zn1      0.78280    0.78280    0.71720   1.00
Zn1      0.71720    0.71720    0.71720   1.00
O2       0.72650    0.77350    0.83820   1.00
O2       0.72650    0.83820    0.77350   1.00
O2       0.66180    0.77350    0.77350   1.00
O2       0.77350    0.72650    0.83820   1.00
O2       0.83820    0.72650    0.77350   1.00
O2       0.77350    0.66180    0.77350   1.00
O2       0.77350    0.83820    0.72650   1.00
O2       0.83820    0.77350    0.72650   1.00
O2       0.77350    0.77350    0.66180   1.00
O2       0.66180    0.72650    0.72650   1.00
O2       0.72650    0.66180    0.72650   1.00
O2       0.72650    0.72650    0.66180   1.00
C1       0.75000    0.75000    0.85520   1.00
C1       0.75000    0.85520    0.75000   1.00
C1       0.64480    0.75000    0.75000   1.00
C1       0.85520    0.75000    0.75000   1.00
C1       0.75000    0.64480    0.75000   1.00
C1       0.75000    0.75000    0.64480   1.00
O1       0.25000    0.25000    0.75000   1.00
Zn1      0.21720    0.28280    0.78280   1.00
Zn1      0.28280    0.21720    0.78280   1.00
Zn1      0.28280    0.28280    0.71720   1.00
Zn1      0.21720    0.21720    0.71720   1.00
O2       0.22650    0.27350    0.83820   1.00
O2       0.22650    0.33820    0.77350   1.00
O2       0.16180    0.27350    0.77350   1.00
O2       0.27350    0.22650    0.83820   1.00
O2       0.33820    0.22650    0.77350   1.00
O2       0.27350    0.16180    0.77350   1.00
O2       0.27350    0.33820    0.72650   1.00
O2       0.33820    0.27350    0.72650   1.00
O2       0.27350    0.27350    0.66180   1.00
O2       0.16180    0.22650    0.72650   1.00
O2       0.22650    0.16180    0.72650   1.00
O2       0.22650    0.22650    0.66180   1.00
C1       0.25000    0.25000    0.85520   1.00
C1       0.25000    0.35520    0.75000   1.00
C1       0.14480    0.25000    0.75000   1.00
C1       0.35520    0.25000    0.75000   1.00
C1       0.25000    0.14480    0.75000   1.00
C1       0.25000    0.25000    0.64480   1.00
O1       0.25000    0.75000    0.25000   1.00
Zn1      0.21720    0.78280    0.28280   1.00
Zn1      0.28280    0.71720    0.28280   1.00
Zn1      0.28280    0.78280    0.21720   1.00
Zn1      0.21720    0.71720    0.21720   1.00
O2       0.22650    0.77350    0.33820   1.00
O2       0.22650    0.83820    0.27350   1.00
O2       0.16180    0.77350    0.27350   1.00
O2       0.27350    0.72650    0.33820   1.00
O2       0.33820    0.72650    0.27350   1.00
O2       0.27350    0.66180    0.27350   1.00
O2       0.27350    0.83820    0.22650   1.00
O2       0.33820    0.77350    0.22650   1.00
O2       0.27350    0.77350    0.16180   1.00
O2       0.16180    0.72650    0.22650   1.00
O2       0.22650    0.66180    0.22650   1.00
O2       0.22650    0.72650    0.16180   1.00
C1       0.25000    0.75000    0.35520   1.00
C1       0.25000    0.85520    0.25000   1.00
C1       0.14480    0.75000    0.25000   1.00
C1       0.35520    0.75000    0.25000   1.00
C1       0.25000    0.64480    0.25000   1.00
C1       0.25000    0.75000    0.14480   1.00
O1       0.75000    0.25000    0.25000   1.00
Zn1      0.71720    0.28280    0.28280   1.00
Zn1      0.78280    0.21720    0.28280   1.00
Zn1      0.78280    0.28280    0.21720   1.00
Zn1      0.71720    0.21720    0.21720   1.00
O2       0.72650    0.27350    0.33820   1.00
O2       0.72650    0.33820    0.27350   1.00
O2       0.66180    0.27350    0.27350   1.00
O2       0.77350    0.22650    0.33820   1.00
O2       0.83820    0.22650    0.27350   1.00
O2       0.77350    0.16180    0.27350   1.00
O2       0.77350    0.33820    0.22650   1.00
O2       0.83820    0.27350    0.22650   1.00
O2       0.77350    0.27350    0.16180   1.00
O2       0.66180    0.22650    0.22650   1.00
O2       0.72650    0.16180    0.22650   1.00
O2       0.72650    0.22650    0.16180   1.00
C1       0.75000    0.25000    0.35520   1.00
C1       0.75000    0.35520    0.25000   1.00
C1       0.64480    0.25000    0.25000   1.00
C1       0.85520    0.25000    0.25000   1.00
C1       0.75000    0.14480    0.25000   1.00
C1       0.75000    0.25000    0.14480   1.00
O1       0.25000    0.25000    0.25000   1.00
Zn1      0.28280    0.21720    0.21720   1.00
Zn1      0.21720    0.28280    0.21720   1.00
Zn1      0.21720    0.21720    0.28280   1.00
Zn1      0.28280    0.28280    0.28280   1.00
O2       0.27350    0.22650    0.16180   1.00
O2       0.27350    0.16180    0.22650   1.00
O2       0.33820    0.22650    0.22650   1.00
O2       0.22650    0.27350    0.16180   1.00
O2       0.16180    0.27350    0.22650   1.00
O2       0.22650    0.33820    0.22650   1.00
O2       0.22650    0.16180    0.27350   1.00
O2       0.16180    0.22650    0.27350   1.00
O2       0.22650    0.22650    0.33820   1.00
O2       0.33820    0.27350    0.27350   1.00
O2       0.27350    0.33820    0.27350   1.00
O2       0.27350    0.27350    0.33820   1.00
C1       0.25000    0.25000    0.14480   1.00
C1       0.25000    0.14480    0.25000   1.00
C1       0.35520    0.25000    0.25000   1.00
C1       0.14480    0.25000    0.25000   1.00
C1       0.25000    0.35520    0.25000   1.00
C1       0.25000    0.25000    0.35520   1.00
O1       0.75000    0.75000    0.25000   1.00
Zn1      0.78280    0.71720    0.21720   1.00
Zn1      0.71720    0.78280    0.21720   1.00
Zn1      0.71720    0.71720    0.28280   1.00
Zn1      0.78280    0.78280    0.28280   1.00
O2       0.77350    0.72650    0.16180   1.00
O2       0.77350    0.66180    0.22650   1.00
O2       0.83820    0.72650    0.22650   1.00
O2       0.72650    0.77350    0.16180   1.00
O2       0.66180    0.77350    0.22650   1.00
O2       0.72650    0.83820    0.22650   1.00
O2       0.72650    0.66180    0.27350   1.00
O2       0.66180    0.72650    0.27350   1.00
O2       0.72650    0.72650    0.33820   1.00
O2       0.83820    0.77350    0.27350   1.00
O2       0.77350    0.83820    0.27350   1.00
O2       0.77350    0.77350    0.33820   1.00
C1       0.75000    0.75000    0.14480   1.00
C1       0.75000    0.64480    0.25000   1.00
C1       0.85520    0.75000    0.25000   1.00
C1       0.64480    0.75000    0.25000   1.00
C1       0.75000    0.85520    0.25000   1.00
C1       0.75000    0.75000    0.35520   1.00
O1       0.75000    0.25000    0.75000   1.00
Zn1      0.78280    0.21720    0.71720   1.00
Zn1      0.71720    0.28280    0.71720   1.00
Zn1      0.71720    0.21720    0.78280   1.00
Zn1      0.78280    0.28280    0.78280   1.00
O2       0.77350    0.22650    0.66180   1.00
O2       0.77350    0.16180    0.72650   1.00
O2       0.83820    0.22650    0.72650   1.00
O2       0.72650    0.27350    0.66180   1.00
O2       0.66180    0.27350    0.72650   1.00
O2       0.72650    0.33820    0.72650   1.00
O2       0.72650    0.16180    0.77350   1.00
O2       0.66180    0.22650    0.77350   1.00
O2       0.72650    0.22650    0.83820   1.00
O2       0.83820    0.27350    0.77350   1.00
O2       0.77350    0.33820    0.77350   1.00
O2       0.77350    0.27350    0.83820   1.00
C1       0.75000    0.25000    0.64480   1.00
C1       0.75000    0.14480    0.75000   1.00
C1       0.85520    0.25000    0.75000   1.00
C1       0.64480    0.25000    0.75000   1.00
C1       0.75000    0.35520    0.75000   1.00
C1       0.75000    0.25000    0.85520   1.00
O1       0.25000    0.75000    0.75000   1.00
Zn1      0.28280    0.71720    0.71720   1.00
Zn1      0.21720    0.78280    0.71720   1.00
Zn1      0.21720    0.71720    0.78280   1.00
Zn1      0.28280    0.78280    0.78280   1.00
O2       0.27350    0.72650    0.66180   1.00
O2       0.27350    0.66180    0.72650   1.00
O2       0.33820    0.72650    0.72650   1.00
O2       0.22650    0.77350    0.66180   1.00
O2       0.16180    0.77350    0.72650   1.00
O2       0.22650    0.83820    0.72650   1.00
O2       0.22650    0.66180    0.77350   1.00
O2       0.16180    0.72650    0.77350   1.00
O2       0.22650    0.72650    0.83820   1.00
O2       0.33820    0.77350    0.77350   1.00
O2       0.27350    0.83820    0.77350   1.00
O2       0.27350    0.77350    0.83820   1.00
C1       0.25000    0.75000    0.64480   1.00
C1       0.25000    0.64480    0.75000   1.00
C1       0.35520    0.75000    0.75000   1.00
C1       0.14480    0.75000    0.75000   1.00
C1       0.25000    0.85520    0.75000   1.00
C1       0.25000    0.75000    0.85520   1.00
O1       0.91500    0.91500    0.91500   1.00
Zn1      0.88220    0.94780    0.94780   1.00
Zn1      0.94780    0.88220    0.94780   1.00
Zn1      0.94780    0.94780    0.88220   1.00
Zn1      0.88220    0.88220    0.88220   1.00
O2       0.89150    0.93850    1.00320   1.00
O2       0.89150    1.00320    0.93850   1.00
O2       0.82680    0.93850    0.93850   1.00
O2       0.93850    0.89150    1.00320   1.00
O2       1.00320    0.89150    0.93850   1.00
O2       0.93850    0.82680    0.93850   1.00
O2       0.93850    1.00320    0.89150   1.00
O2       1.00320    0.93850    0.89150   1.00
O2       0.93850    0.93850    0.82680   1.00
O2       0.82680    0.89150    0.89150   1.00
O2       0.89150    0.82680    0.89150   1.00
O2       0.89150    0.89150    0.82680   1.00
C1       0.91500    0.91500    1.02020   1.00
C1       0.91500    1.02020    0.91500   1.00
C1       0.80980    0.91500    0.91500   1.00
C1       1.02020    0.91500    0.91500   1.00
C1       0.91500    0.80980    0.91500   1.00
C1       0.91500    0.91500    0.80980   1.00
O1       0.41500    0.41500    0.91500   1.00
Zn1      0.38220    0.44780    0.94780   1.00
Zn1      0.44780    0.38220    0.94780   1.00
Zn1      0.44780    0.44780    0.88220   1.00
Zn1      0.38220    0.38220    0.88220   1.00
O2       0.39150    0.43850    1.00320   1.00
O2       0.39150    0.50320    0.93850   1.00
O2       0.32680    0.43850    0.93850   1.00
O2       0.43850    0.39150    1.00320   1.00
O2       0.50320    0.39150    0.93850   1.00
O2       0.43850    0.32680    0.93850   1.00
O2       0.43850    0.50320    0.89150   1.00
O2       0.50320    0.43850    0.89150   1.00
O2       0.43850    0.43850    0.82680   1.00
O2       0.32680    0.39150    0.89150   1.00
O2       0.39150    0.32680    0.89150   1.00
O2       0.39150    0.39150    0.82680   1.00
C1       0.41500    0.41500    1.02020   1.00
C1       0.41500    0.52020    0.91500   1.00
C1       0.30980    0.41500    0.91500   1.00
C1       0.52020    0.41500    0.91500   1.00
C1       0.41500    0.30980    0.91500   1.00
C1       0.41500    0.41500    0.80980   1.00
O1       0.41500    0.91500    0.41500   1.00
Zn1      0.38220    0.94780    0.44780   1.00
Zn1      0.44780    0.88220    0.44780   1.00
Zn1      0.44780    0.94780    0.38220   1.00
Zn1      0.38220    0.88220    0.38220   1.00
O2       0.39150    0.93850    0.50320   1.00
O2       0.39150    1.00320    0.43850   1.00
O2       0.32680    0.93850    0.43850   1.00
O2       0.43850    0.89150    0.50320   1.00
O2       0.50320    0.89150    0.43850   1.00
O2       0.43850    0.82680    0.43850   1.00
O2       0.43850    1.00320    0.39150   1.00
O2       0.50320    0.93850    0.39150   1.00
O2       0.43850    0.93850    0.32680   1.00
O2       0.32680    0.89150    0.39150   1.00
O2       0.39150    0.82680    0.39150   1.00
O2       0.39150    0.89150    0.32680   1.00
C1       0.41500    0.91500    0.52020   1.00
C1       0.41500    1.02020    0.41500   1.00
C1       0.30980    0.91500    0.41500   1.00
C1       0.52020    0.91500    0.41500   1.00
C1       0.41500    0.80980    0.41500   1.00
C1       0.41500    0.91500    0.30980   1.00
O1       0.91500    0.41500    0.41500   1.00
Zn1      0.88220    0.44780    0.44780   1.00
Zn1      0.94780    0.38220    0.44780   1.00
Zn1      0.94780    0.44780    0.38220   1.00
Zn1      0.88220    0.38220    0.38220   1.00
O2       0.89150    0.43850    0.50320   1.00
O2       0.89150    0.50320    0.43850   1.00
O2       0.82680    0.43850    0.43850   1.00
O2       0.93850    0.39150    0.50320   1.00
O2       1.00320    0.39150    0.43850   1.00
O2       0.93850    0.32680    0.43850   1.00
O2       0.93850    0.50320    0.39150   1.00
O2       1.00320    0.43850    0.39150   1.00
O2       0.93850    0.43850    0.32680   1.00
O2       0.82680    0.39150    0.39150   1.00
O2       0.89150    0.32680    0.39150   1.00
O2       0.89150    0.39150    0.32680   1.00
C1       0.91500    0.41500    0.52020   1.00
C1       0.91500    0.52020    0.41500   1.00
C1       0.80980    0.41500    0.41500   1.00
C1       1.02020    0.41500    0.41500   1.00
C1       0.91500    0.30980    0.41500   1.00
C1       0.91500    0.41500    0.30980   1.00
O1       0.41500    0.41500    0.41500   1.00
Zn1      0.44780    0.38220    0.38220   1.00
Zn1      0.38220    0.44780    0.38220   1.00
Zn1      0.38220    0.38220    0.44780   1.00
Zn1      0.44780    0.44780    0.44780   1.00
O2       0.43850    0.39150    0.32680   1.00
O2       0.43850    0.32680    0.39150   1.00
O2       0.50320    0.39150    0.39150   1.00
O2       0.39150    0.43850    0.32680   1.00
O2       0.32680    0.43850    0.39150   1.00
O2       0.39150    0.50320    0.39150   1.00
O2       0.39150    0.32680    0.43850   1.00
O2       0.32680    0.39150    0.43850   1.00
O2       0.39150    0.39150    0.50320   1.00
O2       0.50320    0.43850    0.43850   1.00
O2       0.43850    0.50320    0.43850   1.00
O2       0.43850    0.43850    0.50320   1.00
C1       0.41500    0.41500    0.30980   1.00
C1       0.41500    0.30980    0.41500   1.00
C1       0.52020    0.41500    0.41500   1.00
C1       0.30980    0.41500    0.41500   1.00
C1       0.41500    0.52020    0.41500   1.00
C1       0.41500    0.41500    0.52020   1.00
O1       0.91500    0.91500    0.41500   1.00
Zn1      0.94780    0.88220    0.38220   1.00
Zn1      0.88220    0.94780    0.38220   1.00
Zn1      0.88220    0.88220    0.44780   1.00
Zn1      0.94780    0.94780    0.44780   1.00
O2       0.93850    0.89150    0.32680   1.00
O2       0.93850    0.82680    0.39150   1.00
O2       1.00320    0.89150    0.39150   1.00
O2       0.89150    0.93850    0.32680   1.00
O2       0.82680    0.93850    0.39150   1.00
O2       0.89150    1.00320    0.39150   1.00
O2       0.89150    0.82680    0.43850   1.00
O2       0.82680    0.89150    0.43850   1.00
O2       0.89150    0.89150    0.50320   1.00
O2       1.00320    0.93850    0.43850   1.00
O2       0.93850    1.00320    0.43850   1.00
O2       0.93850    0.93850    0.50320   1.00
C1       0.91500    0.91500    0.30980   1.00
C1       0.91500    0.80980    0.41500   1.00
C1       1.02020    0.91500    0.41500   1.00
C1       0.80980    0.91500    0.41500   1.00
C1       0.91500    1.02020    0.41500   1.00
C1       0.91500    0.91500    0.52020   1.00
O1       0.91500    0.41500    0.91500   1.00
Zn1      0.94780    0.38220    0.88220   1.00
Zn1      0.88220    0.44780    0.88220   1.00
Zn1      0.88220    0.38220    0.94780   1.00
Zn1      0.94780    0.44780    0.94780   1.00
O2       0.93850    0.39150    0.82680   1.00
O2       0.93850    0.32680    0.89150   1.00
O2       1.00320    0.39150    0.89150   1.00
O2       0.89150    0.43850    0.82680   1.00
O2       0.82680    0.43850    0.89150   1.00
O2       0.89150    0.50320    0.89150   1.00
O2       0.89150    0.32680    0.93850   1.00
O2       0.82680    0.39150    0.93850   1.00
O2       0.89150    0.39150    1.00320   1.00
O2       1.00320    0.43850    0.93850   1.00
O2       0.93850    0.50320    0.93850   1.00
O2       0.93850    0.43850    1.00320   1.00
C1       0.91500    0.41500    0.80980   1.00
C1       0.91500    0.30980    0.91500   1.00
C1       1.02020    0.41500    0.91500   1.00
C1       0.80980    0.41500    0.91500   1.00
C1       0.91500    0.52020    0.91500   1.00
C1       0.91500    0.41500    1.02020   1.00
O1       0.41500    0.91500    0.91500   1.00
Zn1      0.44780    0.88220    0.88220   1.00
Zn1      0.38220    0.94780    0.88220   1.00
Zn1      0.38220    0.88220    0.94780   1.00
Zn1      0.44780    0.94780    0.94780   1.00
O2       0.43850    0.89150    0.82680   1.00
O2       0.43850    0.82680    0.89150   1.00
O2       0.50320    0.89150    0.89150   1.00
O2       0.39150    0.93850    0.82680   1.00
O2       0.32680    0.93850    0.89150   1.00
O2       0.39150    1.00320    0.89150   1.00
O2       0.39150    0.82680    0.93850   1.00
O2       0.32680    0.89150    0.93850   1.00
O2       0.39150    0.89150    1.00320   1.00
O2       0.50320    0.93850    0.93850   1.00
O2       0.43850    1.00320    0.93850   1.00
O2       0.43850    0.93850    1.00320   1.00
C1       0.41500    0.91500    0.80980   1.00
C1       0.41500    0.80980    0.91500   1.00
C1       0.52020    0.91500    0.91500   1.00
C1       0.30980    0.91500    0.91500   1.00
C1       0.41500    1.02020    0.91500   1.00
C1       0.41500    0.91500    1.02020   1.00
C4       0.74980    0.74925    1.02067   1.00
C4       0.75020    0.75075    0.97933   1.00
C3       0.71489    0.75480    1.04244   1.00
C3       0.71719    0.76339    0.95756   1.00
C4       0.78500    0.74234    1.04150   1.00
C4       0.78414    0.73914    0.95850   1.00
C2       0.74940    0.75018    1.10352   1.00
C2       0.74939    0.75015    0.89648   1.00
C3       0.71496    0.75559    1.08310   1.00
C3       0.71686    0.76268    0.91690   1.00
C3       0.78396    0.74309    1.08306   1.00
C3       0.78287    0.73901    0.91694   1.00
H1       0.68671    0.75771    1.02888   1.00
H1       0.69133    0.77496    0.97112   1.00
C5       0.82011    0.73431    1.02065   1.00
C5       0.81857    0.72854    0.97935   1.00
H1       0.68796    0.76020    1.09886   1.00
H1       0.69117    0.77218    0.90114   1.00
H1       0.80954    0.73764    1.10053   1.00
H1       0.80775    0.73094    0.89947   1.00
C6       0.85912    0.73346    1.04234   1.00
C6       0.85277    0.70978    0.95766   1.00
H2       0.88282    0.74507    1.02358   1.00
H2       0.85948    0.75380    1.06737   1.00
C6       0.86848    0.69222    1.05724   1.00
H2       0.86750    0.68788    0.97642   1.00
H2       0.84292    0.69198    0.93263   1.00
C6       0.88150    0.74081    0.94276   1.00
H2       0.86930    0.67095    1.03274   1.00
C6       0.90771    0.69175    1.07832   1.00
H2       0.84520    0.68226    1.07760   1.00
C6       0.91571    0.72161    0.92168   1.00
H2       0.86631    0.76108    0.92240   1.00
H2       0.89284    0.75883    0.96726   1.00
H2       0.93150    0.70079    1.05822   1.00
H2       0.90719    0.71180    1.10380   1.00
H2       0.91411    0.66182    1.08898   1.00
H2       0.93179    0.70189    0.94178   1.00
H2       0.90524    0.70451    0.89620   1.00
H2       0.93622    0.74434    0.91102   1.00
C4       0.74925    1.02067    0.74980   1.00
C4       0.75075    0.97933    0.75020   1.00
C3       0.75480    1.04244    0.71489   1.00
C3       0.76339    0.95756    0.71719   1.00
C4       0.74234    1.04150    0.78500   1.00
C4       0.73914    0.95850    0.78414   1.00
C2       0.75018    1.10352    0.74940   1.00
C2       0.75015    0.89648    0.74939   1.00
C3       0.75559    1.08310    0.71496   1.00
C3       0.76268    0.91690    0.71686   1.00
C3       0.74309    1.08306    0.78396   1.00
C3       0.73901    0.91694    0.78287   1.00
H1       0.75771    1.02888    0.68671   1.00
H1       0.77496    0.97112    0.69133   1.00
C5       0.73431    1.02065    0.82011   1.00
C5       0.72854    0.97935    0.81857   1.00
H1       0.76020    1.09886    0.68796   1.00
H1       0.77218    0.90114    0.69117   1.00
H1       0.73764    1.10053    0.80954   1.00
H1       0.73094    0.89947    0.80775   1.00
C6       0.73346    1.04234    0.85912   1.00
C6       0.70978    0.95766    0.85277   1.00
H2       0.74507    1.02358    0.88282   1.00
H2       0.75380    1.06737    0.85948   1.00
C6       0.69222    1.05724    0.86848   1.00
H2       0.68788    0.97642    0.86750   1.00
H2       0.69198    0.93263    0.84292   1.00
C6       0.74081    0.94276    0.88150   1.00
H2       0.67095    1.03274    0.86930   1.00
C6       0.69175    1.07832    0.90771   1.00
H2       0.68226    1.07760    0.84520   1.00
C6       0.72161    0.92168    0.91571   1.00
H2       0.76108    0.92240    0.86631   1.00
H2       0.75883    0.96726    0.89284   1.00
H2       0.70079    1.05822    0.93150   1.00
H2       0.71180    1.10380    0.90719   1.00
H2       0.66182    1.08898    0.91411   1.00
H2       0.70189    0.94178    0.93179   1.00
H2       0.70451    0.89620    0.90524   1.00
H2       0.74434    0.91102    0.93622   1.00
C4       0.47933    0.74980    0.75075   1.00
C4       0.52067    0.75020    0.74925   1.00
C3       0.45756    0.71489    0.74520   1.00
C3       0.54244    0.71719    0.73661   1.00
C4       0.45850    0.78500    0.75766   1.00
C4       0.54150    0.78414    0.76086   1.00
C2       0.39648    0.74940    0.74982   1.00
C2       0.60352    0.74939    0.74985   1.00
C3       0.41690    0.71496    0.74441   1.00
C3       0.58310    0.71686    0.73732   1.00
C3       0.41694    0.78396    0.75691   1.00
C3       0.58306    0.78287    0.76099   1.00
H1       0.47112    0.68671    0.74229   1.00
H1       0.52888    0.69133    0.72504   1.00
C5       0.47935    0.82011    0.76569   1.00
C5       0.52065    0.81857    0.77146   1.00
H1       0.40114    0.68796    0.73980   1.00
H1       0.59886    0.69117    0.72782   1.00
H1       0.39947    0.80954    0.76236   1.00
H1       0.60053    0.80775    0.76906   1.00
C6       0.45766    0.85912    0.76654   1.00
C6       0.54234    0.85277    0.79022   1.00
H2       0.47642    0.88282    0.75493   1.00
H2       0.43263    0.85948    0.74620   1.00
C6       0.44276    0.86848    0.80778   1.00
H2       0.52358    0.86750    0.81212   1.00
H2       0.56737    0.84292    0.80802   1.00
C6       0.55724    0.88150    0.75919   1.00
H2       0.46726    0.86930    0.82905   1.00
C6       0.42168    0.90771    0.80825   1.00
H2       0.42240    0.84520    0.81774   1.00
C6       0.57832    0.91571    0.77839   1.00
H2       0.57760    0.86631    0.73892   1.00
H2       0.53274    0.89284    0.74117   1.00
H2       0.44178    0.93150    0.79921   1.00
H2       0.39620    0.90719    0.78820   1.00
H2       0.41102    0.91411    0.83818   1.00
H2       0.55822    0.93179    0.79811   1.00
H2       0.60380    0.90524    0.79549   1.00
H2       0.58898    0.93622    0.75566   1.00
C4       1.02067    0.74980    0.74925   1.00
C4       0.97933    0.75020    0.75075   1.00
C3       1.04244    0.71489    0.75480   1.00
C3       0.95756    0.71719    0.76339   1.00
C4       1.04150    0.78500    0.74234   1.00
C4       0.95850    0.78414    0.73914   1.00
C2       1.10352    0.74940    0.75018   1.00
C2       0.89648    0.74939    0.75015   1.00
C3       1.08310    0.71496    0.75559   1.00
C3       0.91690    0.71686    0.76268   1.00
C3       1.08306    0.78396    0.74309   1.00
C3       0.91694    0.78287    0.73901   1.00
H1       1.02888    0.68671    0.75771   1.00
H1       0.97112    0.69133    0.77496   1.00
C5       1.02065    0.82011    0.73431   1.00
C5       0.97935    0.81857    0.72854   1.00
H1       1.09886    0.68796    0.76020   1.00
H1       0.90114    0.69117    0.77218   1.00
H1       1.10053    0.80954    0.73764   1.00
H1       0.89947    0.80775    0.73094   1.00
C6       1.04234    0.85912    0.73346   1.00
C6       0.95766    0.85277    0.70978   1.00
H2       1.02358    0.88282    0.74507   1.00
H2       1.06737    0.85948    0.75380   1.00
C6       1.05724    0.86848    0.69222   1.00
H2       0.97642    0.86750    0.68788   1.00
H2       0.93263    0.84292    0.69198   1.00
C6       0.94276    0.88150    0.74081   1.00
H2       1.03274    0.86930    0.67095   1.00
C6       1.07832    0.90771    0.69175   1.00
H2       1.07760    0.84520    0.68226   1.00
C6       0.92168    0.91571    0.72161   1.00
H2       0.92240    0.86631    0.76108   1.00
H2       0.96726    0.89284    0.75883   1.00
H2       1.05822    0.93150    0.70079   1.00
H2       1.10380    0.90719    0.71180   1.00
H2       1.08898    0.91411    0.66182   1.00
H2       0.94178    0.93179    0.70189   1.00
H2       0.89620    0.90524    0.70451   1.00
H2       0.91102    0.93622    0.74434   1.00
C4       0.75075    0.47933    0.74980   1.00
C4       0.74925    0.52067    0.75020   1.00
C3       0.74520    0.45756    0.71489   1.00
C3       0.73661    0.54244    0.71719   1.00
C4       0.75766    0.45850    0.78500   1.00
C4       0.76086    0.54150    0.78414   1.00
C2       0.74982    0.39648    0.74940   1.00
C2       0.74985    0.60352    0.74939   1.00
C3       0.74441    0.41690    0.71496   1.00
C3       0.73732    0.58310    0.71686   1.00
C3       0.75691    0.41694    0.78396   1.00
C3       0.76099    0.58306    0.78287   1.00
H1       0.74229    0.47112    0.68671   1.00
H1       0.72504    0.52888    0.69133   1.00
C5       0.76569    0.47935    0.82011   1.00
C5       0.77146    0.52065    0.81857   1.00
H1       0.73980    0.40114    0.68796   1.00
H1       0.72782    0.59886    0.69117   1.00
H1       0.76236    0.39947    0.80954   1.00
H1       0.76906    0.60053    0.80775   1.00
C6       0.76654    0.45766    0.85912   1.00
C6       0.79022    0.54234    0.85277   1.00
H2       0.75493    0.47642    0.88282   1.00
H2       0.74620    0.43263    0.85948   1.00
C6       0.80778    0.44276    0.86848   1.00
H2       0.81212    0.52358    0.86750   1.00
H2       0.80802    0.56737    0.84292   1.00
C6       0.75919    0.55724    0.88150   1.00
H2       0.82905    0.46726    0.86930   1.00
C6       0.80825    0.42168    0.90771   1.00
H2       0.81774    0.42240    0.84520   1.00
C6       0.77839    0.57832    0.91571   1.00
H2       0.73892    0.57760    0.86631   1.00
H2       0.74117    0.53274    0.89284   1.00
H2       0.79921    0.44178    0.93150   1.00
H2       0.78820    0.39620    0.90719   1.00
H2       0.83818    0.41102    0.91411   1.00
H2       0.79811    0.55822    0.93179   1.00
H2       0.79549    0.60380    0.90524   1.00
H2       0.75566    0.58898    0.93622   1.00
C4       0.74980    0.75075    0.47933   1.00
C4       0.75020    0.74925    0.52067   1.00
C3       0.71489    0.74520    0.45756   1.00
C3       0.71719    0.73661    0.54244   1.00
C4       0.78500    0.75766    0.45850   1.00
C4       0.78414    0.76086    0.54150   1.00
C2       0.74940    0.74982    0.39648   1.00
C2       0.74939    0.74985    0.60352   1.00
C3       0.71496    0.74441    0.41690   1.00
C3       0.71686    0.73732    0.58310   1.00
C3       0.78396    0.75691    0.41694   1.00
C3       0.78287    0.76099    0.58306   1.00
H1       0.68671    0.74229    0.47112   1.00
H1       0.69133    0.72504    0.52888   1.00
C5       0.82011    0.76569    0.47935   1.00
C5       0.81857    0.77146    0.52065   1.00
H1       0.68796    0.73980    0.40114   1.00
H1       0.69117    0.72782    0.59886   1.00
H1       0.80954    0.76236    0.39947   1.00
H1       0.80775    0.76906    0.60053   1.00
C6       0.85912    0.76654    0.45766   1.00
C6       0.85277    0.79022    0.54234   1.00
H2       0.88282    0.75493    0.47642   1.00
H2       0.85948    0.74620    0.43263   1.00
C6       0.86848    0.80778    0.44276   1.00
H2       0.86750    0.81212    0.52358   1.00
H2       0.84292    0.80802    0.56737   1.00
C6       0.88150    0.75919    0.55724   1.00
H2       0.86930    0.82905    0.46726   1.00
C6       0.90771    0.80825    0.42168   1.00
H2       0.84520    0.81774    0.42240   1.00
C6       0.91571    0.77839    0.57832   1.00
H2       0.86631    0.73892    0.57760   1.00
H2       0.89284    0.74117    0.53274   1.00
H2       0.93150    0.79921    0.44178   1.00
H2       0.90719    0.78820    0.39620   1.00
H2       0.91411    0.83818    0.41102   1.00
H2       0.93179    0.79811    0.55822   1.00
H2       0.90524    0.79549    0.60380   1.00
H2       0.93622    0.75566    0.58898   1.00
C4       0.24980    0.24925    1.02067   1.00
C4       0.25020    0.25075    0.97933   1.00
C3       0.21489    0.25480    1.04244   1.00
C3       0.21719    0.26339    0.95756   1.00
C4       0.28500    0.24234    1.04150   1.00
C4       0.28414    0.23914    0.95850   1.00
C2       0.24940    0.25018    1.10352   1.00
C2       0.24939    0.25015    0.89648   1.00
C3       0.21496    0.25559    1.08310   1.00
C3       0.21686    0.26268    0.91690   1.00
C3       0.28396    0.24309    1.08306   1.00
C3       0.28287    0.23901    0.91694   1.00
H1       0.18671    0.25771    1.02888   1.00
H1       0.19133    0.27496    0.97112   1.00
C5       0.32011    0.23431    1.02065   1.00
C5       0.31857    0.22854    0.97935   1.00
H1       0.18796    0.26020    1.09886   1.00
H1       0.19117    0.27218    0.90114   1.00
H1       0.30954    0.23764    1.10053   1.00
H1       0.30775    0.23094    0.89947   1.00
C6       0.35912    0.23346    1.04234   1.00
C6       0.35277    0.20978    0.95766   1.00
H2       0.38282    0.24507    1.02358   1.00
H2       0.35948    0.25380    1.06737   1.00
C6       0.36848    0.19222    1.05724   1.00
H2       0.36750    0.18788    0.97642   1.00
H2       0.34292    0.19198    0.93263   1.00
C6       0.38150    0.24081    0.94276   1.00
H2       0.36930    0.17095    1.03274   1.00
C6       0.40771    0.19175    1.07832   1.00
H2       0.34520    0.18226    1.07760   1.00
C6       0.41571    0.22161    0.92168   1.00
H2       0.36631    0.26108    0.92240   1.00
H2       0.39284    0.25883    0.96726   1.00
H2       0.43150    0.20079    1.05822   1.00
H2       0.40719    0.21180    1.10380   1.00
H2       0.41411    0.16182    1.08898   1.00
H2       0.43179    0.20189    0.94178   1.00
H2       0.40524    0.20451    0.89620   1.00
H2       0.43622    0.24434    0.91102   1.00
C4       0.24925    0.52067    0.74980   1.00
C4       0.25075    0.47933    0.75020   1.00
C3       0.25480    0.54244    0.71489   1.00
C3       0.26339    0.45756    0.71719   1.00
C4       0.24234    0.54150    0.78500   1.00
C4       0.23914    0.45850    0.78414   1.00
C2       0.25018    0.60352    0.74940   1.00
C2       0.25015    0.39648    0.74939   1.00
C3       0.25559    0.58310    0.71496   1.00
C3       0.26268    0.41690    0.71686   1.00
C3       0.24309    0.58306    0.78396   1.00
C3       0.23901    0.41694    0.78287   1.00
H1       0.25771    0.52888    0.68671   1.00
H1       0.27496    0.47112    0.69133   1.00
C5       0.23431    0.52065    0.82011   1.00
C5       0.22854    0.47935    0.81857   1.00
H1       0.26020    0.59886    0.68796   1.00
H1       0.27218    0.40114    0.69117   1.00
H1       0.23764    0.60053    0.80954   1.00
H1       0.23094    0.39947    0.80775   1.00
C6       0.23346    0.54234    0.85912   1.00
C6       0.20978    0.45766    0.85277   1.00
H2       0.24507    0.52358    0.88282   1.00
H2       0.25380    0.56737    0.85948   1.00
C6       0.19222    0.55724    0.86848   1.00
H2       0.18788    0.47642    0.86750   1.00
H2       0.19198    0.43263    0.84292   1.00
C6       0.24081    0.44276    0.88150   1.00
H2       0.17095    0.53274    0.86930   1.00
C6       0.19175    0.57832    0.90771   1.00
H2       0.18226    0.57760    0.84520   1.00
C6       0.22161    0.42168    0.91571   1.00
H2       0.26108    0.42240    0.86631   1.00
H2       0.25883    0.46726    0.89284   1.00
H2       0.20079    0.55822    0.93150   1.00
H2       0.21180    0.60380    0.90719   1.00
H2       0.16182    0.58898    0.91411   1.00
H2       0.20189    0.44178    0.93179   1.00
H2       0.20451    0.39620    0.90524   1.00
H2       0.24434    0.41102    0.93622   1.00
C4       -0.02067   0.24980    0.75075   1.00
C4       0.02067    0.25020    0.74925   1.00
C3       -0.04244   0.21489    0.74520   1.00
C3       0.04244    0.21719    0.73661   1.00
C4       -0.04150   0.28500    0.75766   1.00
C4       0.04150    0.28414    0.76086   1.00
C2       -0.10352   0.24940    0.74982   1.00
C2       0.10352    0.24939    0.74985   1.00
C3       -0.08310   0.21496    0.74441   1.00
C3       0.08310    0.21686    0.73732   1.00
C3       -0.08306   0.28396    0.75691   1.00
C3       0.08306    0.28287    0.76099   1.00
H1       -0.02888   0.18671    0.74229   1.00
H1       0.02888    0.19133    0.72504   1.00
C5       -0.02065   0.32011    0.76569   1.00
C5       0.02065    0.31857    0.77146   1.00
H1       -0.09886   0.18796    0.73980   1.00
H1       0.09886    0.19117    0.72782   1.00
H1       -0.10053   0.30954    0.76236   1.00
H1       0.10053    0.30775    0.76906   1.00
C6       -0.04234   0.35912    0.76654   1.00
C6       0.04234    0.35277    0.79022   1.00
H2       -0.02358   0.38282    0.75493   1.00
H2       -0.06737   0.35948    0.74620   1.00
C6       -0.05724   0.36848    0.80778   1.00
H2       0.02358    0.36750    0.81212   1.00
H2       0.06737    0.34292    0.80802   1.00
C6       0.05724    0.38150    0.75919   1.00
H2       -0.03274   0.36930    0.82905   1.00
C6       -0.07832   0.40771    0.80825   1.00
H2       -0.07760   0.34520    0.81774   1.00
C6       0.07832    0.41571    0.77839   1.00
H2       0.07760    0.36631    0.73892   1.00
H2       0.03274    0.39284    0.74117   1.00
H2       -0.05822   0.43150    0.79921   1.00
H2       -0.10380   0.40719    0.78820   1.00
H2       -0.08898   0.41411    0.83818   1.00
H2       0.05822    0.43179    0.79811   1.00
H2       0.10380    0.40524    0.79549   1.00
H2       0.08898    0.43622    0.75566   1.00
C4       0.52067    0.24980    0.74925   1.00
C4       0.47933    0.25020    0.75075   1.00
C3       0.54244    0.21489    0.75480   1.00
C3       0.45756    0.21719    0.76339   1.00
C4       0.54150    0.28500    0.74234   1.00
C4       0.45850    0.28414    0.73914   1.00
C2       0.60352    0.24940    0.75018   1.00
C2       0.39648    0.24939    0.75015   1.00
C3       0.58310    0.21496    0.75559   1.00
C3       0.41690    0.21686    0.76268   1.00
C3       0.58306    0.28396    0.74309   1.00
C3       0.41694    0.28287    0.73901   1.00
H1       0.52888    0.18671    0.75771   1.00
H1       0.47112    0.19133    0.77496   1.00
C5       0.52065    0.32011    0.73431   1.00
C5       0.47935    0.31857    0.72854   1.00
H1       0.59886    0.18796    0.76020   1.00
H1       0.40114    0.19117    0.77218   1.00
H1       0.60053    0.30954    0.73764   1.00
H1       0.39947    0.30775    0.73094   1.00
C6       0.54234    0.35912    0.73346   1.00
C6       0.45766    0.35277    0.70978   1.00
H2       0.52358    0.38282    0.74507   1.00
H2       0.56737    0.35948    0.75380   1.00
C6       0.55724    0.36848    0.69222   1.00
H2       0.47642    0.36750    0.68788   1.00
H2       0.43263    0.34292    0.69198   1.00
C6       0.44276    0.38150    0.74081   1.00
H2       0.53274    0.36930    0.67095   1.00
C6       0.57832    0.40771    0.69175   1.00
H2       0.57760    0.34520    0.68226   1.00
C6       0.42168    0.41571    0.72161   1.00
H2       0.42240    0.36631    0.76108   1.00
H2       0.46726    0.39284    0.75883   1.00
H2       0.55822    0.43150    0.70079   1.00
H2       0.60380    0.40719    0.71180   1.00
H2       0.58898    0.41411    0.66182   1.00
H2       0.44178    0.43179    0.70189   1.00
H2       0.39620    0.40524    0.70451   1.00
H2       0.41102    0.43622    0.74434   1.00
C4       0.25075    -0.02067   0.74980   1.00
C4       0.24925    0.02067    0.75020   1.00
C3       0.24520    -0.04244   0.71489   1.00
C3       0.23661    0.04244    0.71719   1.00
C4       0.25766    -0.04150   0.78500   1.00
C4       0.26086    0.04150    0.78414   1.00
C2       0.24982    -0.10352   0.74940   1.00
C2       0.24985    0.10352    0.74939   1.00
C3       0.24441    -0.08310   0.71496   1.00
C3       0.23732    0.08310    0.71686   1.00
C3       0.25691    -0.08306   0.78396   1.00
C3       0.26099    0.08306    0.78287   1.00
H1       0.24229    -0.02888   0.68671   1.00
H1       0.22504    0.02888    0.69133   1.00
C5       0.26569    -0.02065   0.82011   1.00
C5       0.27146    0.02065    0.81857   1.00
H1       0.23980    -0.09886   0.68796   1.00
H1       0.22782    0.09886    0.69117   1.00
H1       0.26236    -0.10053   0.80954   1.00
H1       0.26906    0.10053    0.80775   1.00
C6       0.26654    -0.04234   0.85912   1.00
C6       0.29022    0.04234    0.85277   1.00
H2       0.25493    -0.02358   0.88282   1.00
H2       0.24620    -0.06737   0.85948   1.00
C6       0.30778    -0.05724   0.86848   1.00
H2       0.31212    0.02358    0.86750   1.00
H2       0.30802    0.06737    0.84292   1.00
C6       0.25919    0.05724    0.88150   1.00
H2       0.32905    -0.03274   0.86930   1.00
C6       0.30825    -0.07832   0.90771   1.00
H2       0.31774    -0.07760   0.84520   1.00
C6       0.27839    0.07832    0.91571   1.00
H2       0.23892    0.07760    0.86631   1.00
H2       0.24117    0.03274    0.89284   1.00
H2       0.29921    -0.05822   0.93150   1.00
H2       0.28820    -0.10380   0.90719   1.00
H2       0.33818    -0.08898   0.91411   1.00
H2       0.29811    0.05822    0.93179   1.00
H2       0.29549    0.10380    0.90524   1.00
H2       0.25566    0.08898    0.93622   1.00
C4       0.24980    0.25075    0.47933   1.00
C4       0.25020    0.24925    0.52067   1.00
C3       0.21489    0.24520    0.45756   1.00
C3       0.21719    0.23661    0.54244   1.00
C4       0.28500    0.25766    0.45850   1.00
C4       0.28414    0.26086    0.54150   1.00
C2       0.24940    0.24982    0.39648   1.00
C2       0.24939    0.24985    0.60352   1.00
C3       0.21496    0.24441    0.41690   1.00
C3       0.21686    0.23732    0.58310   1.00
C3       0.28396    0.25691    0.41694   1.00
C3       0.28287    0.26099    0.58306   1.00
H1       0.18671    0.24229    0.47112   1.00
H1       0.19133    0.22504    0.52888   1.00
C5       0.32011    0.26569    0.47935   1.00
C5       0.31857    0.27146    0.52065   1.00
H1       0.18796    0.23980    0.40114   1.00
H1       0.19117    0.22782    0.59886   1.00
H1       0.30954    0.26236    0.39947   1.00
H1       0.30775    0.26906    0.60053   1.00
C6       0.35912    0.26654    0.45766   1.00
C6       0.35277    0.29022    0.54234   1.00
H2       0.38282    0.25493    0.47642   1.00
H2       0.35948    0.24620    0.43263   1.00
C6       0.36848    0.30778    0.44276   1.00
H2       0.36750    0.31212    0.52358   1.00
H2       0.34292    0.30802    0.56737   1.00
C6       0.38150    0.25919    0.55724   1.00
H2       0.36930    0.32905    0.46726   1.00
C6       0.40771    0.30825    0.42168   1.00
H2       0.34520    0.31774    0.42240   1.00
C6       0.41571    0.27839    0.57832   1.00
H2       0.36631    0.23892    0.57760   1.00
H2       0.39284    0.24117    0.53274   1.00
H2       0.43150    0.29921    0.44178   1.00
H2       0.40719    0.28820    0.39620   1.00
H2       0.41411    0.33818    0.41102   1.00
H2       0.43179    0.29811    0.55822   1.00
H2       0.40524    0.29549    0.60380   1.00
H2       0.43622    0.25566    0.58898   1.00
C4       0.24980    0.74925    0.52067   1.00
C4       0.25020    0.75075    0.47933   1.00
C3       0.21489    0.75480    0.54244   1.00
C3       0.21719    0.76339    0.45756   1.00
C4       0.28500    0.74234    0.54150   1.00
C4       0.28414    0.73914    0.45850   1.00
C2       0.24940    0.75018    0.60352   1.00
C2       0.24939    0.75015    0.39648   1.00
C3       0.21496    0.75559    0.58310   1.00
C3       0.21686    0.76268    0.41690   1.00
C3       0.28396    0.74309    0.58306   1.00
C3       0.28287    0.73901    0.41694   1.00
H1       0.18671    0.75771    0.52888   1.00
H1       0.19133    0.77496    0.47112   1.00
C5       0.32011    0.73431    0.52065   1.00
C5       0.31857    0.72854    0.47935   1.00
H1       0.18796    0.76020    0.59886   1.00
H1       0.19117    0.77218    0.40114   1.00
H1       0.30954    0.73764    0.60053   1.00
H1       0.30775    0.73094    0.39947   1.00
C6       0.35912    0.73346    0.54234   1.00
C6       0.35277    0.70978    0.45766   1.00
H2       0.38282    0.74507    0.52358   1.00
H2       0.35948    0.75380    0.56737   1.00
C6       0.36848    0.69222    0.55724   1.00
H2       0.36750    0.68788    0.47642   1.00
H2       0.34292    0.69198    0.43263   1.00
C6       0.38150    0.74081    0.44276   1.00
H2       0.36930    0.67095    0.53274   1.00
C6       0.40771    0.69175    0.57832   1.00
H2       0.34520    0.68226    0.57760   1.00
C6       0.41571    0.72161    0.42168   1.00
H2       0.36631    0.76108    0.42240   1.00
H2       0.39284    0.75883    0.46726   1.00
H2       0.43150    0.70079    0.55822   1.00
H2       0.40719    0.71180    0.60380   1.00
H2       0.41411    0.66182    0.58898   1.00
H2       0.43179    0.70189    0.44178   1.00
H2       0.40524    0.70451    0.39620   1.00
H2       0.43622    0.74434    0.41102   1.00
C4       0.24925    1.02067    0.24980   1.00
C4       0.25075    0.97933    0.25020   1.00
C3       0.25480    1.04244    0.21489   1.00
C3       0.26339    0.95756    0.21719   1.00
C4       0.24234    1.04150    0.28500   1.00
C4       0.23914    0.95850    0.28414   1.00
C2       0.25018    1.10352    0.24940   1.00
C2       0.25015    0.89648    0.24939   1.00
C3       0.25559    1.08310    0.21496   1.00
C3       0.26268    0.91690    0.21686   1.00
C3       0.24309    1.08306    0.28396   1.00
C3       0.23901    0.91694    0.28287   1.00
H1       0.25771    1.02888    0.18671   1.00
H1       0.27496    0.97112    0.19133   1.00
C5       0.23431    1.02065    0.32011   1.00
C5       0.22854    0.97935    0.31857   1.00
H1       0.26020    1.09886    0.18796   1.00
H1       0.27218    0.90114    0.19117   1.00
H1       0.23764    1.10053    0.30954   1.00
H1       0.23094    0.89947    0.30775   1.00
C6       0.23346    1.04234    0.35912   1.00
C6       0.20978    0.95766    0.35277   1.00
H2       0.24507    1.02358    0.38282   1.00
H2       0.25380    1.06737    0.35948   1.00
C6       0.19222    1.05724    0.36848   1.00
H2       0.18788    0.97642    0.36750   1.00
H2       0.19198    0.93263    0.34292   1.00
C6       0.24081    0.94276    0.38150   1.00
H2       0.17095    1.03274    0.36930   1.00
C6       0.19175    1.07832    0.40771   1.00
H2       0.18226    1.07760    0.34520   1.00
C6       0.22161    0.92168    0.41571   1.00
H2       0.26108    0.92240    0.36631   1.00
H2       0.25883    0.96726    0.39284   1.00
H2       0.20079    1.05822    0.43150   1.00
H2       0.21180    1.10380    0.40719   1.00
H2       0.16182    1.08898    0.41411   1.00
H2       0.20189    0.94178    0.43179   1.00
H2       0.20451    0.89620    0.40524   1.00
H2       0.24434    0.91102    0.43622   1.00
C4       -0.02067   0.74980    0.25075   1.00
C4       0.02067    0.75020    0.24925   1.00
C3       -0.04244   0.71489    0.24520   1.00
C3       0.04244    0.71719    0.23661   1.00
C4       -0.04150   0.78500    0.25766   1.00
C4       0.04150    0.78414    0.26086   1.00
C2       -0.10352   0.74940    0.24982   1.00
C2       0.10352    0.74939    0.24985   1.00
C3       -0.08310   0.71496    0.24441   1.00
C3       0.08310    0.71686    0.23732   1.00
C3       -0.08306   0.78396    0.25691   1.00
C3       0.08306    0.78287    0.26099   1.00
H1       -0.02888   0.68671    0.24229   1.00
H1       0.02888    0.69133    0.22504   1.00
C5       -0.02065   0.82011    0.26569   1.00
C5       0.02065    0.81857    0.27146   1.00
H1       -0.09886   0.68796    0.23980   1.00
H1       0.09886    0.69117    0.22782   1.00
H1       -0.10053   0.80954    0.26236   1.00
H1       0.10053    0.80775    0.26906   1.00
C6       -0.04234   0.85912    0.26654   1.00
C6       0.04234    0.85277    0.29022   1.00
H2       -0.02358   0.88282    0.25493   1.00
H2       -0.06737   0.85948    0.24620   1.00
C6       -0.05724   0.86848    0.30778   1.00
H2       0.02358    0.86750    0.31212   1.00
H2       0.06737    0.84292    0.30802   1.00
C6       0.05724    0.88150    0.25919   1.00
H2       -0.03274   0.86930    0.32905   1.00
C6       -0.07832   0.90771    0.30825   1.00
H2       -0.07760   0.84520    0.31774   1.00
C6       0.07832    0.91571    0.27839   1.00
H2       0.07760    0.86631    0.23892   1.00
H2       0.03274    0.89284    0.24117   1.00
H2       -0.05822   0.93150    0.29921   1.00
H2       -0.10380   0.90719    0.28820   1.00
H2       -0.08898   0.91411    0.33818   1.00
H2       0.05822    0.93179    0.29811   1.00
H2       0.10380    0.90524    0.29549   1.00
H2       0.08898    0.93622    0.25566   1.00
C4       0.52067    0.74980    0.24925   1.00
C4       0.47933    0.75020    0.25075   1.00
C3       0.54244    0.71489    0.25480   1.00
C3       0.45756    0.71719    0.26339   1.00
C4       0.54150    0.78500    0.24234   1.00
C4       0.45850    0.78414    0.23914   1.00
C2       0.60352    0.74940    0.25018   1.00
C2       0.39648    0.74939    0.25015   1.00
C3       0.58310    0.71496    0.25559   1.00
C3       0.41690    0.71686    0.26268   1.00
C3       0.58306    0.78396    0.24309   1.00
C3       0.41694    0.78287    0.23901   1.00
H1       0.52888    0.68671    0.25771   1.00
H1       0.47112    0.69133    0.27496   1.00
C5       0.52065    0.82011    0.23431   1.00
C5       0.47935    0.81857    0.22854   1.00
H1       0.59886    0.68796    0.26020   1.00
H1       0.40114    0.69117    0.27218   1.00
H1       0.60053    0.80954    0.23764   1.00
H1       0.39947    0.80775    0.23094   1.00
C6       0.54234    0.85912    0.23346   1.00
C6       0.45766    0.85277    0.20978   1.00
H2       0.52358    0.88282    0.24507   1.00
H2       0.56737    0.85948    0.25380   1.00
C6       0.55724    0.86848    0.19222   1.00
H2       0.47642    0.86750    0.18788   1.00
H2       0.43263    0.84292    0.19198   1.00
C6       0.44276    0.88150    0.24081   1.00
H2       0.53274    0.86930    0.17095   1.00
C6       0.57832    0.90771    0.19175   1.00
H2       0.57760    0.84520    0.18226   1.00
C6       0.42168    0.91571    0.22161   1.00
H2       0.42240    0.86631    0.26108   1.00
H2       0.46726    0.89284    0.25883   1.00
H2       0.55822    0.93150    0.20079   1.00
H2       0.60380    0.90719    0.21180   1.00
H2       0.58898    0.91411    0.16182   1.00
H2       0.44178    0.93179    0.20189   1.00
H2       0.39620    0.90524    0.20451   1.00
H2       0.41102    0.93622    0.24434   1.00
C4       0.25075    0.47933    0.24980   1.00
C4       0.24925    0.52067    0.25020   1.00
C3       0.24520    0.45756    0.21489   1.00
C3       0.23661    0.54244    0.21719   1.00
C4       0.25766    0.45850    0.28500   1.00
C4       0.26086    0.54150    0.28414   1.00
C2       0.24982    0.39648    0.24940   1.00
C2       0.24985    0.60352    0.24939   1.00
C3       0.24441    0.41690    0.21496   1.00
C3       0.23732    0.58310    0.21686   1.00
C3       0.25691    0.41694    0.28396   1.00
C3       0.26099    0.58306    0.28287   1.00
H1       0.24229    0.47112    0.18671   1.00
H1       0.22504    0.52888    0.19133   1.00
C5       0.26569    0.47935    0.32011   1.00
C5       0.27146    0.52065    0.31857   1.00
H1       0.23980    0.40114    0.18796   1.00
H1       0.22782    0.59886    0.19117   1.00
H1       0.26236    0.39947    0.30954   1.00
H1       0.26906    0.60053    0.30775   1.00
C6       0.26654    0.45766    0.35912   1.00
C6       0.29022    0.54234    0.35277   1.00
H2       0.25493    0.47642    0.38282   1.00
H2       0.24620    0.43263    0.35948   1.00
C6       0.30778    0.44276    0.36848   1.00
H2       0.31212    0.52358    0.36750   1.00
H2       0.30802    0.56737    0.34292   1.00
C6       0.25919    0.55724    0.38150   1.00
H2       0.32905    0.46726    0.36930   1.00
C6       0.30825    0.42168    0.40771   1.00
H2       0.31774    0.42240    0.34520   1.00
C6       0.27839    0.57832    0.41571   1.00
H2       0.23892    0.57760    0.36631   1.00
H2       0.24117    0.53274    0.39284   1.00
H2       0.29921    0.44178    0.43150   1.00
H2       0.28820    0.39620    0.40719   1.00
H2       0.33818    0.41102    0.41411   1.00
H2       0.29811    0.55822    0.43179   1.00
H2       0.29549    0.60380    0.40524   1.00
H2       0.25566    0.58898    0.43622   1.00
C4       0.24980    0.75075    -0.02067   1.00
C4       0.25020    0.74925    0.02067   1.00
C3       0.21489    0.74520    -0.04244   1.00
C3       0.21719    0.73661    0.04244   1.00
C4       0.28500    0.75766    -0.04150   1.00
C4       0.28414    0.76086    0.04150   1.00
C2       0.24940    0.74982    -0.10352   1.00
C2       0.24939    0.74985    0.10352   1.00
C3       0.21496    0.74441    -0.08310   1.00
C3       0.21686    0.73732    0.08310   1.00
C3       0.28396    0.75691    -0.08306   1.00
C3       0.28287    0.76099    0.08306   1.00
H1       0.18671    0.74229    -0.02888   1.00
H1       0.19133    0.72504    0.02888   1.00
C5       0.32011    0.76569    -0.02065   1.00
C5       0.31857    0.77146    0.02065   1.00
H1       0.18796    0.73980    -0.09886   1.00
H1       0.19117    0.72782    0.09886   1.00
H1       0.30954    0.76236    -0.10053   1.00
H1       0.30775    0.76906    0.10053   1.00
C6       0.35912    0.76654    -0.04234   1.00
C6       0.35277    0.79022    0.04234   1.00
H2       0.38282    0.75493    -0.02358   1.00
H2       0.35948    0.74620    -0.06737   1.00
C6       0.36848    0.80778    -0.05724   1.00
H2       0.36750    0.81212    0.02358   1.00
H2       0.34292    0.80802    0.06737   1.00
C6       0.38150    0.75919    0.05724   1.00
H2       0.36930    0.82905    -0.03274   1.00
C6       0.40771    0.80825    -0.07832   1.00
H2       0.34520    0.81774    -0.07760   1.00
C6       0.41571    0.77839    0.07832   1.00
H2       0.36631    0.73892    0.07760   1.00
H2       0.39284    0.74117    0.03274   1.00
H2       0.43150    0.79921    -0.05822   1.00
H2       0.40719    0.78820    -0.10380   1.00
H2       0.41411    0.83818    -0.08898   1.00
H2       0.43179    0.79811    0.05822   1.00
H2       0.40524    0.79549    0.10380   1.00
H2       0.43622    0.75566    0.08898   1.00
C4       0.74980    0.24925    0.52067   1.00
C4       0.75020    0.25075    0.47933   1.00
C3       0.71489    0.25480    0.54244   1.00
C3       0.71719    0.26339    0.45756   1.00
C4       0.78500    0.24234    0.54150   1.00
C4       0.78414    0.23914    0.45850   1.00
C2       0.74940    0.25018    0.60352   1.00
C2       0.74939    0.25015    0.39648   1.00
C3       0.71496    0.25559    0.58310   1.00
C3       0.71686    0.26268    0.41690   1.00
C3       0.78396    0.24309    0.58306   1.00
C3       0.78287    0.23901    0.41694   1.00
H1       0.68671    0.25771    0.52888   1.00
H1       0.69133    0.27496    0.47112   1.00
C5       0.82011    0.23431    0.52065   1.00
C5       0.81857    0.22854    0.47935   1.00
H1       0.68796    0.26020    0.59886   1.00
H1       0.69117    0.27218    0.40114   1.00
H1       0.80954    0.23764    0.60053   1.00
H1       0.80775    0.23094    0.39947   1.00
C6       0.85912    0.23346    0.54234   1.00
C6       0.85277    0.20978    0.45766   1.00
H2       0.88282    0.24507    0.52358   1.00
H2       0.85948    0.25380    0.56737   1.00
C6       0.86848    0.19222    0.55724   1.00
H2       0.86750    0.18788    0.47642   1.00
H2       0.84292    0.19198    0.43263   1.00
C6       0.88150    0.24081    0.44276   1.00
H2       0.86930    0.17095    0.53274   1.00
C6       0.90771    0.19175    0.57832   1.00
H2       0.84520    0.18226    0.57760   1.00
C6       0.91571    0.22161    0.42168   1.00
H2       0.86631    0.26108    0.42240   1.00
H2       0.89284    0.25883    0.46726   1.00
H2       0.93150    0.20079    0.55822   1.00
H2       0.90719    0.21180    0.60380   1.00
H2       0.91411    0.16182    0.58898   1.00
H2       0.93179    0.20189    0.44178   1.00
H2       0.90524    0.20451    0.39620   1.00
H2       0.93622    0.24434    0.41102   1.00
C4       0.74925    0.52067    0.24980   1.00
C4       0.75075    0.47933    0.25020   1.00
C3       0.75480    0.54244    0.21489   1.00
C3       0.76339    0.45756    0.21719   1.00
C4       0.74234    0.54150    0.28500   1.00
C4       0.73914    0.45850    0.28414   1.00
C2       0.75018    0.60352    0.24940   1.00
C2       0.75015    0.39648    0.24939   1.00
C3       0.75559    0.58310    0.21496   1.00
C3       0.76268    0.41690    0.21686   1.00
C3       0.74309    0.58306    0.28396   1.00
C3       0.73901    0.41694    0.28287   1.00
H1       0.75771    0.52888    0.18671   1.00
H1       0.77496    0.47112    0.19133   1.00
C5       0.73431    0.52065    0.32011   1.00
C5       0.72854    0.47935    0.31857   1.00
H1       0.76020    0.59886    0.18796   1.00
H1       0.77218    0.40114    0.19117   1.00
H1       0.73764    0.60053    0.30954   1.00
H1       0.73094    0.39947    0.30775   1.00
C6       0.73346    0.54234    0.35912   1.00
C6       0.70978    0.45766    0.35277   1.00
H2       0.74507    0.52358    0.38282   1.00
H2       0.75380    0.56737    0.35948   1.00
C6       0.69222    0.55724    0.36848   1.00
H2       0.68788    0.47642    0.36750   1.00
H2       0.69198    0.43263    0.34292   1.00
C6       0.74081    0.44276    0.38150   1.00
H2       0.67095    0.53274    0.36930   1.00
C6       0.69175    0.57832    0.40771   1.00
H2       0.68226    0.57760    0.34520   1.00
C6       0.72161    0.42168    0.41571   1.00
H2       0.76108    0.42240    0.36631   1.00
H2       0.75883    0.46726    0.39284   1.00
H2       0.70079    0.55822    0.43150   1.00
H2       0.71180    0.60380    0.40719   1.00
H2       0.66182    0.58898    0.41411   1.00
H2       0.70189    0.44178    0.43179   1.00
H2       0.70451    0.39620    0.40524   1.00
H2       0.74434    0.41102    0.43622   1.00
C4       0.47933    0.24980    0.25075   1.00
C4       0.52067    0.25020    0.24925   1.00
C3       0.45756    0.21489    0.24520   1.00
C3       0.54244    0.21719    0.23661   1.00
C4       0.45850    0.28500    0.25766   1.00
C4       0.54150    0.28414    0.26086   1.00
C2       0.39648    0.24940    0.24982   1.00
C2       0.60352    0.24939    0.24985   1.00
C3       0.41690    0.21496    0.24441   1.00
C3       0.58310    0.21686    0.23732   1.00
C3       0.41694    0.28396    0.25691   1.00
C3       0.58306    0.28287    0.26099   1.00
H1       0.47112    0.18671    0.24229   1.00
H1       0.52888    0.19133    0.22504   1.00
C5       0.47935    0.32011    0.26569   1.00
C5       0.52065    0.31857    0.27146   1.00
H1       0.40114    0.18796    0.23980   1.00
H1       0.59886    0.19117    0.22782   1.00
H1       0.39947    0.30954    0.26236   1.00
H1       0.60053    0.30775    0.26906   1.00
C6       0.45766    0.35912    0.26654   1.00
C6       0.54234    0.35277    0.29022   1.00
H2       0.47642    0.38282    0.25493   1.00
H2       0.43263    0.35948    0.24620   1.00
C6       0.44276    0.36848    0.30778   1.00
H2       0.52358    0.36750    0.31212   1.00
H2       0.56737    0.34292    0.30802   1.00
C6       0.55724    0.38150    0.25919   1.00
H2       0.46726    0.36930    0.32905   1.00
C6       0.42168    0.40771    0.30825   1.00
H2       0.42240    0.34520    0.31774   1.00
C6       0.57832    0.41571    0.27839   1.00
H2       0.57760    0.36631    0.23892   1.00
H2       0.53274    0.39284    0.24117   1.00
H2       0.44178    0.43150    0.29921   1.00
H2       0.39620    0.40719    0.28820   1.00
H2       0.41102    0.41411    0.33818   1.00
H2       0.55822    0.43179    0.29811   1.00
H2       0.60380    0.40524    0.29549   1.00
H2       0.58898    0.43622    0.25566   1.00
C4       1.02067    0.24980    0.24925   1.00
C4       0.97933    0.25020    0.25075   1.00
C3       1.04244    0.21489    0.25480   1.00
C3       0.95756    0.21719    0.26339   1.00
C4       1.04150    0.28500    0.24234   1.00
C4       0.95850    0.28414    0.23914   1.00
C2       1.10352    0.24940    0.25018   1.00
C2       0.89648    0.24939    0.25015   1.00
C3       1.08310    0.21496    0.25559   1.00
C3       0.91690    0.21686    0.26268   1.00
C3       1.08306    0.28396    0.24309   1.00
C3       0.91694    0.28287    0.23901   1.00
H1       1.02888    0.18671    0.25771   1.00
H1       0.97112    0.19133    0.27496   1.00
C5       1.02065    0.32011    0.23431   1.00
C5       0.97935    0.31857    0.22854   1.00
H1       1.09886    0.18796    0.26020   1.00
H1       0.90114    0.19117    0.27218   1.00
H1       1.10053    0.30954    0.23764   1.00
H1       0.89947    0.30775    0.23094   1.00
C6       1.04234    0.35912    0.23346   1.00
C6       0.95766    0.35277    0.20978   1.00
H2       1.02358    0.38282    0.24507   1.00
H2       1.06737    0.35948    0.25380   1.00
C6       1.05724    0.36848    0.19222   1.00
H2       0.97642    0.36750    0.18788   1.00
H2       0.93263    0.34292    0.19198   1.00
C6       0.94276    0.38150    0.24081   1.00
H2       1.03274    0.36930    0.17095   1.00
C6       1.07832    0.40771    0.19175   1.00
H2       1.07760    0.34520    0.18226   1.00
C6       0.92168    0.41571    0.22161   1.00
H2       0.92240    0.36631    0.26108   1.00
H2       0.96726    0.39284    0.25883   1.00
H2       1.05822    0.43150    0.20079   1.00
H2       1.10380    0.40719    0.21180   1.00
H2       1.08898    0.41411    0.16182   1.00
H2       0.94178    0.43179    0.20189   1.00
H2       0.89620    0.40524    0.20451   1.00
H2       0.91102    0.43622    0.24434   1.00
C4       0.75075    -0.02067   0.24980   1.00
C4       0.74925    0.02067    0.25020   1.00
C3       0.74520    -0.04244   0.21489   1.00
C3       0.73661    0.04244    0.21719   1.00
C4       0.75766    -0.04150   0.28500   1.00
C4       0.76086    0.04150    0.28414   1.00
C2       0.74982    -0.10352   0.24940   1.00
C2       0.74985    0.10352    0.24939   1.00
C3       0.74441    -0.08310   0.21496   1.00
C3       0.73732    0.08310    0.21686   1.00
C3       0.75691    -0.08306   0.28396   1.00
C3       0.76099    0.08306    0.28287   1.00
H1       0.74229    -0.02888   0.18671   1.00
H1       0.72504    0.02888    0.19133   1.00
C5       0.76569    -0.02065   0.32011   1.00
C5       0.77146    0.02065    0.31857   1.00
H1       0.73980    -0.09886   0.18796   1.00
H1       0.72782    0.09886    0.19117   1.00
H1       0.76236    -0.10053   0.30954   1.00
H1       0.76906    0.10053    0.30775   1.00
C6       0.76654    -0.04234   0.35912   1.00
C6       0.79022    0.04234    0.35277   1.00
H2       0.75493    -0.02358   0.38282   1.00
H2       0.74620    -0.06737   0.35948   1.00
C6       0.80778    -0.05724   0.36848   1.00
H2       0.81212    0.02358    0.36750   1.00
H2       0.80802    0.06737    0.34292   1.00
C6       0.75919    0.05724    0.38150   1.00
H2       0.82905    -0.03274   0.36930   1.00
C6       0.80825    -0.07832   0.40771   1.00
H2       0.81774    -0.07760   0.34520   1.00
C6       0.77839    0.07832    0.41571   1.00
H2       0.73892    0.07760    0.36631   1.00
H2       0.74117    0.03274    0.39284   1.00
H2       0.79921    -0.05822   0.43150   1.00
H2       0.78820    -0.10380   0.40719   1.00
H2       0.83818    -0.08898   0.41411   1.00
H2       0.79811    0.05822    0.43179   1.00
H2       0.79549    0.10380    0.40524   1.00
H2       0.75566    0.08898    0.43622   1.00
C4       0.74980    0.25075    -0.02067   1.00
C4       0.75020    0.24925    0.02067   1.00
C3       0.71489    0.24520    -0.04244   1.00
C3       0.71719    0.23661    0.04244   1.00
C4       0.78500    0.25766    -0.04150   1.00
C4       0.78414    0.26086    0.04150   1.00
C2       0.74940    0.24982    -0.10352   1.00
C2       0.74939    0.24985    0.10352   1.00
C3       0.71496    0.24441    -0.08310   1.00
C3       0.71686    0.23732    0.08310   1.00
C3       0.78396    0.25691    -0.08306   1.00
C3       0.78287    0.26099    0.08306   1.00
H1       0.68671    0.24229    -0.02888   1.00
H1       0.69133    0.22504    0.02888   1.00
C5       0.82011    0.26569    -0.02065   1.00
C5       0.81857    0.27146    0.02065   1.00
H1       0.68796    0.23980    -0.09886   1.00
H1       0.69117    0.22782    0.09886   1.00
H1       0.80954    0.26236    -0.10053   1.00
H1       0.80775    0.26906    0.10053   1.00
C6       0.85912    0.26654    -0.04234   1.00
C6       0.85277    0.29022    0.04234   1.00
H2       0.88282    0.25493    -0.02358   1.00
H2       0.85948    0.24620    -0.06737   1.00
C6       0.86848    0.30778    -0.05724   1.00
H2       0.86750    0.31212    0.02358   1.00
H2       0.84292    0.30802    0.06737   1.00
C6       0.88150    0.25919    0.05724   1.00
H2       0.86930    0.32905    -0.03274   1.00
C6       0.90771    0.30825    -0.07832   1.00
H2       0.84520    0.31774    -0.07760   1.00
C6       0.91571    0.27839    0.07832   1.00
H2       0.86631    0.23892    0.07760   1.00
H2       0.89284    0.24117    0.03274   1.00
H2       0.93150    0.29921    -0.05822   1.00
H2       0.90719    0.28820    -0.10380   1.00
H2       0.91411    0.33818    -0.08898   1.00
H2       0.93179    0.29811    0.05822   1.00
H2       0.90524    0.29549    0.10380   1.00
H2       0.93622    0.25566    0.08898   1.00
C4       0.91480    0.91425    1.18567   1.00
C4       0.91520    0.91575    1.14433   1.00
C3       0.87989    0.91980    1.20744   1.00
C3       0.88219    0.92839    1.12256   1.00
C4       0.95000    0.90734    1.20650   1.00
C4       0.94914    0.90414    1.12350   1.00
C2       0.91440    0.91518    1.26852   1.00
C2       0.91439    0.91515    1.06148   1.00
C3       0.87996    0.92059    1.24810   1.00
C3       0.88186    0.92768    1.08190   1.00
C3       0.94896    0.90809    1.24806   1.00
C3       0.94787    0.90401    1.08194   1.00
H1       0.85171    0.92271    1.19388   1.00
H1       0.85633    0.93996    1.13612   1.00
C5       0.98511    0.89931    1.18565   1.00
C5       0.98357    0.89354    1.14435   1.00
H1       0.85296    0.92520    1.26386   1.00
H1       0.85617    0.93718    1.06614   1.00
H1       0.97454    0.90264    1.26553   1.00
H1       0.97275    0.89594    1.06447   1.00
C6       1.02412    0.89846    1.20734   1.00
C6       1.01777    0.87478    1.12266   1.00
H2       1.04782    0.91007    1.18858   1.00
H2       1.02448    0.91880    1.23237   1.00
C6       1.03348    0.85722    1.22224   1.00
H2       1.03250    0.85288    1.14142   1.00
H2       1.00792    0.85698    1.09763   1.00
C6       1.04650    0.90581    1.10776   1.00
H2       1.03430    0.83595    1.19774   1.00
C6       1.07271    0.85675    1.24332   1.00
H2       1.01020    0.84726    1.24260   1.00
C6       1.08071    0.88661    1.08668   1.00
H2       1.03131    0.92608    1.08740   1.00
H2       1.05784    0.92383    1.13226   1.00
H2       1.09650    0.86579    1.22322   1.00
H2       1.07219    0.87680    1.26880   1.00
H2       1.07911    0.82682    1.25398   1.00
H2       1.09679    0.86689    1.10678   1.00
H2       1.07024    0.86951    1.06120   1.00
H2       1.10122    0.90934    1.07602   1.00
C4       0.91425    1.18567    0.91480   1.00
C4       0.91575    1.14433    0.91520   1.00
C3       0.91980    1.20744    0.87989   1.00
C3       0.92839    1.12256    0.88219   1.00
C4       0.90734    1.20650    0.95000   1.00
C4       0.90414    1.12350    0.94914   1.00
C2       0.91518    1.26852    0.91440   1.00
C2       0.91515    1.06148    0.91439   1.00
C3       0.92059    1.24810    0.87996   1.00
C3       0.92768    1.08190    0.88186   1.00
C3       0.90809    1.24806    0.94896   1.00
C3       0.90401    1.08194    0.94787   1.00
H1       0.92271    1.19388    0.85171   1.00
H1       0.93996    1.13612    0.85633   1.00
C5       0.89931    1.18565    0.98511   1.00
C5       0.89354    1.14435    0.98357   1.00
H1       0.92520    1.26386    0.85296   1.00
H1       0.93718    1.06614    0.85617   1.00
H1       0.90264    1.26553    0.97454   1.00
H1       0.89594    1.06447    0.97275   1.00
C6       0.89846    1.20734    1.02412   1.00
C6       0.87478    1.12266    1.01777   1.00
H2       0.91007    1.18858    1.04782   1.00
H2       0.91880    1.23237    1.02448   1.00
C6       0.85722    1.22224    1.03348   1.00
H2       0.85288    1.14142    1.03250   1.00
H2       0.85698    1.09763    1.00792   1.00
C6       0.90581    1.10776    1.04650   1.00
H2       0.83595    1.19774    1.03430   1.00
C6       0.85675    1.24332    1.07271   1.00
H2       0.84726    1.24260    1.01020   1.00
C6       0.88661    1.08668    1.08071   1.00
H2       0.92608    1.08740    1.03131   1.00
H2       0.92383    1.13226    1.05784   1.00
H2       0.86579    1.22322    1.09650   1.00
H2       0.87680    1.26880    1.07219   1.00
H2       0.82682    1.25398    1.07911   1.00
H2       0.86689    1.10678    1.09679   1.00
H2       0.86951    1.06120    1.07024   1.00
H2       0.90934    1.07602    1.10122   1.00
C4       0.64433    0.91480    0.91575   1.00
C4       0.68567    0.91520    0.91425   1.00
C3       0.62256    0.87989    0.91020   1.00
C3       0.70744    0.88219    0.90161   1.00
C4       0.62350    0.95000    0.92266   1.00
C4       0.70650    0.94914    0.92586   1.00
C2       0.56148    0.91440    0.91482   1.00
C2       0.76852    0.91439    0.91485   1.00
C3       0.58190    0.87996    0.90941   1.00
C3       0.74810    0.88186    0.90232   1.00
C3       0.58194    0.94896    0.92191   1.00
C3       0.74806    0.94787    0.92599   1.00
H1       0.63612    0.85171    0.90729   1.00
H1       0.69388    0.85633    0.89004   1.00
C5       0.64435    0.98511    0.93069   1.00
C5       0.68565    0.98357    0.93646   1.00
H1       0.56614    0.85296    0.90480   1.00
H1       0.76386    0.85617    0.89282   1.00
H1       0.56447    0.97454    0.92736   1.00
H1       0.76553    0.97275    0.93406   1.00
C6       0.62266    1.02412    0.93154   1.00
C6       0.70734    1.01777    0.95522   1.00
H2       0.64142    1.04782    0.91993   1.00
H2       0.59763    1.02448    0.91120   1.00
C6       0.60776    1.03348    0.97278   1.00
H2       0.68858    1.03250    0.97712   1.00
H2       0.73237    1.00792    0.97302   1.00
C6       0.72224    1.04650    0.92419   1.00
H2       0.63226    1.03430    0.99405   1.00
C6       0.58668    1.07271    0.97325   1.00
H2       0.58740    1.01020    0.98274   1.00
C6       0.74332    1.08071    0.94339   1.00
H2       0.74260    1.03131    0.90392   1.00
H2       0.69774    1.05784    0.90617   1.00
H2       0.60678    1.09650    0.96421   1.00
H2       0.56120    1.07219    0.95320   1.00
H2       0.57602    1.07911    1.00318   1.00
H2       0.72322    1.09679    0.96311   1.00
H2       0.76880    1.07024    0.96049   1.00
H2       0.75398    1.10122    0.92066   1.00
C4       1.18567    0.91480    0.91425   1.00
C4       1.14433    0.91520    0.91575   1.00
C3       1.20744    0.87989    0.91980   1.00
C3       1.12256    0.88219    0.92839   1.00
C4       1.20650    0.95000    0.90734   1.00
C4       1.12350    0.94914    0.90414   1.00
C2       1.26852    0.91440    0.91518   1.00
C2       1.06148    0.91439    0.91515   1.00
C3       1.24810    0.87996    0.92059   1.00
C3       1.08190    0.88186    0.92768   1.00
C3       1.24806    0.94896    0.90809   1.00
C3       1.08194    0.94787    0.90401   1.00
H1       1.19388    0.85171    0.92271   1.00
H1       1.13612    0.85633    0.93996   1.00
C5       1.18565    0.98511    0.89931   1.00
C5       1.14435    0.98357    0.89354   1.00
H1       1.26386    0.85296    0.92520   1.00
H1       1.06614    0.85617    0.93718   1.00
H1       1.26553    0.97454    0.90264   1.00
H1       1.06447    0.97275    0.89594   1.00
C6       1.20734    1.02412    0.89846   1.00
C6       1.12266    1.01777    0.87478   1.00
H2       1.18858    1.04782    0.91007   1.00
H2       1.23237    1.02448    0.91880   1.00
C6       1.22224    1.03348    0.85722   1.00
H2       1.14142    1.03250    0.85288   1.00
H2       1.09763    1.00792    0.85698   1.00
C6       1.10776    1.04650    0.90581   1.00
H2       1.19774    1.03430    0.83595   1.00
C6       1.24332    1.07271    0.85675   1.00
H2       1.24260    1.01020    0.84726   1.00
C6       1.08668    1.08071    0.88661   1.00
H2       1.08740    1.03131    0.92608   1.00
H2       1.13226    1.05784    0.92383   1.00
H2       1.22322    1.09650    0.86579   1.00
H2       1.26880    1.07219    0.87680   1.00
H2       1.25398    1.07911    0.82682   1.00
H2       1.10678    1.09679    0.86689   1.00
H2       1.06120    1.07024    0.86951   1.00
H2       1.07602    1.10122    0.90934   1.00
C4       0.91575    0.64433    0.91480   1.00
C4       0.91425    0.68567    0.91520   1.00
C3       0.91020    0.62256    0.87989   1.00
C3       0.90161    0.70744    0.88219   1.00
C4       0.92266    0.62350    0.95000   1.00
C4       0.92586    0.70650    0.94914   1.00
C2       0.91482    0.56148    0.91440   1.00
C2       0.91485    0.76852    0.91439   1.00
C3       0.90941    0.58190    0.87996   1.00
C3       0.90232    0.74810    0.88186   1.00
C3       0.92191    0.58194    0.94896   1.00
C3       0.92599    0.74806    0.94787   1.00
H1       0.90729    0.63612    0.85171   1.00
H1       0.89004    0.69388    0.85633   1.00
C5       0.93069    0.64435    0.98511   1.00
C5       0.93646    0.68565    0.98357   1.00
H1       0.90480    0.56614    0.85296   1.00
H1       0.89282    0.76386    0.85617   1.00
H1       0.92736    0.56447    0.97454   1.00
H1       0.93406    0.76553    0.97275   1.00
C6       0.93154    0.62266    1.02412   1.00
C6       0.95522    0.70734    1.01777   1.00
H2       0.91993    0.64142    1.04782   1.00
H2       0.91120    0.59763    1.02448   1.00
C6       0.97278    0.60776    1.03348   1.00
H2       0.97712    0.68858    1.03250   1.00
H2       0.97302    0.73237    1.00792   1.00
C6       0.92419    0.72224    1.04650   1.00
H2       0.99405    0.63226    1.03430   1.00
C6       0.97325    0.58668    1.07271   1.00
H2       0.98274    0.58740    1.01020   1.00
C6       0.94339    0.74332    1.08071   1.00
H2       0.90392    0.74260    1.03131   1.00
H2       0.90617    0.69774    1.05784   1.00
H2       0.96421    0.60678    1.09650   1.00
H2       0.95320    0.56120    1.07219   1.00
H2       1.00318    0.57602    1.07911   1.00
H2       0.96311    0.72322    1.09679   1.00
H2       0.96049    0.76880    1.07024   1.00
H2       0.92066    0.75398    1.10122   1.00
C4       0.91480    0.91575    0.64433   1.00
C4       0.91520    0.91425    0.68567   1.00
C3       0.87989    0.91020    0.62256   1.00
C3       0.88219    0.90161    0.70744   1.00
C4       0.95000    0.92266    0.62350   1.00
C4       0.94914    0.92586    0.70650   1.00
C2       0.91440    0.91482    0.56148   1.00
C2       0.91439    0.91485    0.76852   1.00
C3       0.87996    0.90941    0.58190   1.00
C3       0.88186    0.90232    0.74810   1.00
C3       0.94896    0.92191    0.58194   1.00
C3       0.94787    0.92599    0.74806   1.00
H1       0.85171    0.90729    0.63612   1.00
H1       0.85633    0.89004    0.69388   1.00
C5       0.98511    0.93069    0.64435   1.00
C5       0.98357    0.93646    0.68565   1.00
H1       0.85296    0.90480    0.56614   1.00
H1       0.85617    0.89282    0.76386   1.00
H1       0.97454    0.92736    0.56447   1.00
H1       0.97275    0.93406    0.76553   1.00
C6       1.02412    0.93154    0.62266   1.00
C6       1.01777    0.95522    0.70734   1.00
H2       1.04782    0.91993    0.64142   1.00
H2       1.02448    0.91120    0.59763   1.00
C6       1.03348    0.97278    0.60776   1.00
H2       1.03250    0.97712    0.68858   1.00
H2       1.00792    0.97302    0.73237   1.00
C6       1.04650    0.92419    0.72224   1.00
H2       1.03430    0.99405    0.63226   1.00
C6       1.07271    0.97325    0.58668   1.00
H2       1.01020    0.98274    0.58740   1.00
C6       1.08071    0.94339    0.74332   1.00
H2       1.03131    0.90392    0.74260   1.00
H2       1.05784    0.90617    0.69774   1.00
H2       1.09650    0.96421    0.60678   1.00
H2       1.07219    0.95320    0.56120   1.00
H2       1.07911    1.00318    0.57602   1.00
H2       1.09679    0.96311    0.72322   1.00
H2       1.07024    0.96049    0.76880   1.00
H2       1.10122    0.92066    0.75398   1.00
C4       0.41480    0.41425    1.18567   1.00
C4       0.41520    0.41575    1.14433   1.00
C3       0.37989    0.41980    1.20744   1.00
C3       0.38219    0.42839    1.12256   1.00
C4       0.45000    0.40734    1.20650   1.00
C4       0.44914    0.40414    1.12350   1.00
C2       0.41440    0.41518    1.26852   1.00
C2       0.41439    0.41515    1.06148   1.00
C3       0.37996    0.42059    1.24810   1.00
C3       0.38186    0.42768    1.08190   1.00
C3       0.44896    0.40809    1.24806   1.00
C3       0.44787    0.40401    1.08194   1.00
H1       0.35171    0.42271    1.19388   1.00
H1       0.35633    0.43996    1.13612   1.00
C5       0.48511    0.39931    1.18565   1.00
C5       0.48357    0.39354    1.14435   1.00
H1       0.35296    0.42520    1.26386   1.00
H1       0.35617    0.43718    1.06614   1.00
H1       0.47454    0.40264    1.26553   1.00
H1       0.47275    0.39594    1.06447   1.00
C6       0.52412    0.39846    1.20734   1.00
C6       0.51777    0.37478    1.12266   1.00
H2       0.54782    0.41007    1.18858   1.00
H2       0.52448    0.41880    1.23237   1.00
C6       0.53348    0.35722    1.22224   1.00
H2       0.53250    0.35288    1.14142   1.00
H2       0.50792    0.35698    1.09763   1.00
C6       0.54650    0.40581    1.10776   1.00
H2       0.53430    0.33595    1.19774   1.00
C6       0.57271    0.35675    1.24332   1.00
H2       0.51020    0.34726    1.24260   1.00
C6       0.58071    0.38661    1.08668   1.00
H2       0.53131    0.42608    1.08740   1.00
H2       0.55784    0.42383    1.13226   1.00
H2       0.59650    0.36579    1.22322   1.00
H2       0.57219    0.37680    1.26880   1.00
H2       0.57911    0.32682    1.25398   1.00
H2       0.59679    0.36689    1.10678   1.00
H2       0.57024    0.36951    1.06120   1.00
H2       0.60122    0.40934    1.07602   1.00
C4       0.41425    0.68567    0.91480   1.00
C4       0.41575    0.64433    0.91520   1.00
C3       0.41980    0.70744    0.87989   1.00
C3       0.42839    0.62256    0.88219   1.00
C4       0.40734    0.70650    0.95000   1.00
C4       0.40414    0.62350    0.94914   1.00
C2       0.41518    0.76852    0.91440   1.00
C2       0.41515    0.56148    0.91439   1.00
C3       0.42059    0.74810    0.87996   1.00
C3       0.42768    0.58190    0.88186   1.00
C3       0.40809    0.74806    0.94896   1.00
C3       0.40401    0.58194    0.94787   1.00
H1       0.42271    0.69388    0.85171   1.00
H1       0.43996    0.63612    0.85633   1.00
C5       0.39931    0.68565    0.98511   1.00
C5       0.39354    0.64435    0.98357   1.00
H1       0.42520    0.76386    0.85296   1.00
H1       0.43718    0.56614    0.85617   1.00
H1       0.40264    0.76553    0.97454   1.00
H1       0.39594    0.56447    0.97275   1.00
C6       0.39846    0.70734    1.02412   1.00
C6       0.37478    0.62266    1.01777   1.00
H2       0.41007    0.68858    1.04782   1.00
H2       0.41880    0.73237    1.02448   1.00
C6       0.35722    0.72224    1.03348   1.00
H2       0.35288    0.64142    1.03250   1.00
H2       0.35698    0.59763    1.00792   1.00
C6       0.40581    0.60776    1.04650   1.00
H2       0.33595    0.69774    1.03430   1.00
C6       0.35675    0.74332    1.07271   1.00
H2       0.34726    0.74260    1.01020   1.00
C6       0.38661    0.58668    1.08071   1.00
H2       0.42608    0.58740    1.03131   1.00
H2       0.42383    0.63226    1.05784   1.00
H2       0.36579    0.72322    1.09650   1.00
H2       0.37680    0.76880    1.07219   1.00
H2       0.32682    0.75398    1.07911   1.00
H2       0.36689    0.60678    1.09679   1.00
H2       0.36951    0.56120    1.07024   1.00
H2       0.40934    0.57602    1.10122   1.00
C4       0.14433    0.41480    0.91575   1.00
C4       0.18567    0.41520    0.91425   1.00
C3       0.12256    0.37989    0.91020   1.00
C3       0.20744    0.38219    0.90161   1.00
C4       0.12350    0.45000    0.92266   1.00
C4       0.20650    0.44914    0.92586   1.00
C2       0.06148    0.41440    0.91482   1.00
C2       0.26852    0.41439    0.91485   1.00
C3       0.08190    0.37996    0.90941   1.00
C3       0.24810    0.38186    0.90232   1.00
C3       0.08194    0.44896    0.92191   1.00
C3       0.24806    0.44787    0.92599   1.00
H1       0.13612    0.35171    0.90729   1.00
H1       0.19388    0.35633    0.89004   1.00
C5       0.14435    0.48511    0.93069   1.00
C5       0.18565    0.48357    0.93646   1.00
H1       0.06614    0.35296    0.90480   1.00
H1       0.26386    0.35617    0.89282   1.00
H1       0.06447    0.47454    0.92736   1.00
H1       0.26553    0.47275    0.93406   1.00
C6       0.12266    0.52412    0.93154   1.00
C6       0.20734    0.51777    0.95522   1.00
H2       0.14142    0.54782    0.91993   1.00
H2       0.09763    0.52448    0.91120   1.00
C6       0.10776    0.53348    0.97278   1.00
H2       0.18858    0.53250    0.97712   1.00
H2       0.23237    0.50792    0.97302   1.00
C6       0.22224    0.54650    0.92419   1.00
H2       0.13226    0.53430    0.99405   1.00
C6       0.08668    0.57271    0.97325   1.00
H2       0.08740    0.51020    0.98274   1.00
C6       0.24332    0.58071    0.94339   1.00
H2       0.24260    0.53131    0.90392   1.00
H2       0.19774    0.55784    0.90617   1.00
H2       0.10678    0.59650    0.96421   1.00
H2       0.06120    0.57219    0.95320   1.00
H2       0.07602    0.57911    1.00318   1.00
H2       0.22322    0.59679    0.96311   1.00
H2       0.26880    0.57024    0.96049   1.00
H2       0.25398    0.60122    0.92066   1.00
C4       0.68567    0.41480    0.91425   1.00
C4       0.64433    0.41520    0.91575   1.00
C3       0.70744    0.37989    0.91980   1.00
C3       0.62256    0.38219    0.92839   1.00
C4       0.70650    0.45000    0.90734   1.00
C4       0.62350    0.44914    0.90414   1.00
C2       0.76852    0.41440    0.91518   1.00
C2       0.56148    0.41439    0.91515   1.00
C3       0.74810    0.37996    0.92059   1.00
C3       0.58190    0.38186    0.92768   1.00
C3       0.74806    0.44896    0.90809   1.00
C3       0.58194    0.44787    0.90401   1.00
H1       0.69388    0.35171    0.92271   1.00
H1       0.63612    0.35633    0.93996   1.00
C5       0.68565    0.48511    0.89931   1.00
C5       0.64435    0.48357    0.89354   1.00
H1       0.76386    0.35296    0.92520   1.00
H1       0.56614    0.35617    0.93718   1.00
H1       0.76553    0.47454    0.90264   1.00
H1       0.56447    0.47275    0.89594   1.00
C6       0.70734    0.52412    0.89846   1.00
C6       0.62266    0.51777    0.87478   1.00
H2       0.68858    0.54782    0.91007   1.00
H2       0.73237    0.52448    0.91880   1.00
C6       0.72224    0.53348    0.85722   1.00
H2       0.64142    0.53250    0.85288   1.00
H2       0.59763    0.50792    0.85698   1.00
C6       0.60776    0.54650    0.90581   1.00
H2       0.69774    0.53430    0.83595   1.00
C6       0.74332    0.57271    0.85675   1.00
H2       0.74260    0.51020    0.84726   1.00
C6       0.58668    0.58071    0.88661   1.00
H2       0.58740    0.53131    0.92608   1.00
H2       0.63226    0.55784    0.92383   1.00
H2       0.72322    0.59650    0.86579   1.00
H2       0.76880    0.57219    0.87680   1.00
H2       0.75398    0.57911    0.82682   1.00
H2       0.60678    0.59679    0.86689   1.00
H2       0.56120    0.57024    0.86951   1.00
H2       0.57602    0.60122    0.90934   1.00
C4       0.41575    0.14433    0.91480   1.00
C4       0.41425    0.18567    0.91520   1.00
C3       0.41020    0.12256    0.87989   1.00
C3       0.40161    0.20744    0.88219   1.00
C4       0.42266    0.12350    0.95000   1.00
C4       0.42586    0.20650    0.94914   1.00
C2       0.41482    0.06148    0.91440   1.00
C2       0.41485    0.26852    0.91439   1.00
C3       0.40941    0.08190    0.87996   1.00
C3       0.40232    0.24810    0.88186   1.00
C3       0.42191    0.08194    0.94896   1.00
C3       0.42599    0.24806    0.94787   1.00
H1       0.40729    0.13612    0.85171   1.00
H1       0.39004    0.19388    0.85633   1.00
C5       0.43069    0.14435    0.98511   1.00
C5       0.43646    0.18565    0.98357   1.00
H1       0.40480    0.06614    0.85296   1.00
H1       0.39282    0.26386    0.85617   1.00
H1       0.42736    0.06447    0.97454   1.00
H1       0.43406    0.26553    0.97275   1.00
C6       0.43154    0.12266    1.02412   1.00
C6       0.45522    0.20734    1.01777   1.00
H2       0.41993    0.14142    1.04782   1.00
H2       0.41120    0.09763    1.02448   1.00
C6       0.47278    0.10776    1.03348   1.00
H2       0.47712    0.18858    1.03250   1.00
H2       0.47302    0.23237    1.00792   1.00
C6       0.42419    0.22224    1.04650   1.00
H2       0.49405    0.13226    1.03430   1.00
C6       0.47325    0.08668    1.07271   1.00
H2       0.48274    0.08740    1.01020   1.00
C6       0.44339    0.24332    1.08071   1.00
H2       0.40392    0.24260    1.03131   1.00
H2       0.40617    0.19774    1.05784   1.00
H2       0.46421    0.10678    1.09650   1.00
H2       0.45320    0.06120    1.07219   1.00
H2       0.50318    0.07602    1.07911   1.00
H2       0.46311    0.22322    1.09679   1.00
H2       0.46049    0.26880    1.07024   1.00
H2       0.42066    0.25398    1.10122   1.00
C4       0.41480    0.41575    0.64433   1.00
C4       0.41520    0.41425    0.68567   1.00
C3       0.37989    0.41020    0.62256   1.00
C3       0.38219    0.40161    0.70744   1.00
C4       0.45000    0.42266    0.62350   1.00
C4       0.44914    0.42586    0.70650   1.00
C2       0.41440    0.41482    0.56148   1.00
C2       0.41439    0.41485    0.76852   1.00
C3       0.37996    0.40941    0.58190   1.00
C3       0.38186    0.40232    0.74810   1.00
C3       0.44896    0.42191    0.58194   1.00
C3       0.44787    0.42599    0.74806   1.00
H1       0.35171    0.40729    0.63612   1.00
H1       0.35633    0.39004    0.69388   1.00
C5       0.48511    0.43069    0.64435   1.00
C5       0.48357    0.43646    0.68565   1.00
H1       0.35296    0.40480    0.56614   1.00
H1       0.35617    0.39282    0.76386   1.00
H1       0.47454    0.42736    0.56447   1.00
H1       0.47275    0.43406    0.76553   1.00
C6       0.52412    0.43154    0.62266   1.00
C6       0.51777    0.45522    0.70734   1.00
H2       0.54782    0.41993    0.64142   1.00
H2       0.52448    0.41120    0.59763   1.00
C6       0.53348    0.47278    0.60776   1.00
H2       0.53250    0.47712    0.68858   1.00
H2       0.50792    0.47302    0.73237   1.00
C6       0.54650    0.42419    0.72224   1.00
H2       0.53430    0.49405    0.63226   1.00
C6       0.57271    0.47325    0.58668   1.00
H2       0.51020    0.48274    0.58740   1.00
C6       0.58071    0.44339    0.74332   1.00
H2       0.53131    0.40392    0.74260   1.00
H2       0.55784    0.40617    0.69774   1.00
H2       0.59650    0.46421    0.60678   1.00
H2       0.57219    0.45320    0.56120   1.00
H2       0.57911    0.50318    0.57602   1.00
H2       0.59679    0.46311    0.72322   1.00
H2       0.57024    0.46049    0.76880   1.00
H2       0.60122    0.42066    0.75398   1.00
C4       0.41480    0.91425    0.68567   1.00
C4       0.41520    0.91575    0.64433   1.00
C3       0.37989    0.91980    0.70744   1.00
C3       0.38219    0.92839    0.62256   1.00
C4       0.45000    0.90734    0.70650   1.00
C4       0.44914    0.90414    0.62350   1.00
C2       0.41440    0.91518    0.76852   1.00
C2       0.41439    0.91515    0.56148   1.00
C3       0.37996    0.92059    0.74810   1.00
C3       0.38186    0.92768    0.58190   1.00
C3       0.44896    0.90809    0.74806   1.00
C3       0.44787    0.90401    0.58194   1.00
H1       0.35171    0.92271    0.69388   1.00
H1       0.35633    0.93996    0.63612   1.00
C5       0.48511    0.89931    0.68565   1.00
C5       0.48357    0.89354    0.64435   1.00
H1       0.35296    0.92520    0.76386   1.00
H1       0.35617    0.93718    0.56614   1.00
H1       0.47454    0.90264    0.76553   1.00
H1       0.47275    0.89594    0.56447   1.00
C6       0.52412    0.89846    0.70734   1.00
C6       0.51777    0.87478    0.62266   1.00
H2       0.54782    0.91007    0.68858   1.00
H2       0.52448    0.91880    0.73237   1.00
C6       0.53348    0.85722    0.72224   1.00
H2       0.53250    0.85288    0.64142   1.00
H2       0.50792    0.85698    0.59763   1.00
C6       0.54650    0.90581    0.60776   1.00
H2       0.53430    0.83595    0.69774   1.00
C6       0.57271    0.85675    0.74332   1.00
H2       0.51020    0.84726    0.74260   1.00
C6       0.58071    0.88661    0.58668   1.00
H2       0.53131    0.92608    0.58740   1.00
H2       0.55784    0.92383    0.63226   1.00
H2       0.59650    0.86579    0.72322   1.00
H2       0.57219    0.87680    0.76880   1.00
H2       0.57911    0.82682    0.75398   1.00
H2       0.59679    0.86689    0.60678   1.00
H2       0.57024    0.86951    0.56120   1.00
H2       0.60122    0.90934    0.57602   1.00
C4       0.41425    1.18567    0.41480   1.00
C4       0.41575    1.14433    0.41520   1.00
C3       0.41980    1.20744    0.37989   1.00
C3       0.42839    1.12256    0.38219   1.00
C4       0.40734    1.20650    0.45000   1.00
C4       0.40414    1.12350    0.44914   1.00
C2       0.41518    1.26852    0.41440   1.00
C2       0.41515    1.06148    0.41439   1.00
C3       0.42059    1.24810    0.37996   1.00
C3       0.42768    1.08190    0.38186   1.00
C3       0.40809    1.24806    0.44896   1.00
C3       0.40401    1.08194    0.44787   1.00
H1       0.42271    1.19388    0.35171   1.00
H1       0.43996    1.13612    0.35633   1.00
C5       0.39931    1.18565    0.48511   1.00
C5       0.39354    1.14435    0.48357   1.00
H1       0.42520    1.26386    0.35296   1.00
H1       0.43718    1.06614    0.35617   1.00
H1       0.40264    1.26553    0.47454   1.00
H1       0.39594    1.06447    0.47275   1.00
C6       0.39846    1.20734    0.52412   1.00
C6       0.37478    1.12266    0.51777   1.00
H2       0.41007    1.18858    0.54782   1.00
H2       0.41880    1.23237    0.52448   1.00
C6       0.35722    1.22224    0.53348   1.00
H2       0.35288    1.14142    0.53250   1.00
H2       0.35698    1.09763    0.50792   1.00
C6       0.40581    1.10776    0.54650   1.00
H2       0.33595    1.19774    0.53430   1.00
C6       0.35675    1.24332    0.57271   1.00
H2       0.34726    1.24260    0.51020   1.00
C6       0.38661    1.08668    0.58071   1.00
H2       0.42608    1.08740    0.53131   1.00
H2       0.42383    1.13226    0.55784   1.00
H2       0.36579    1.22322    0.59650   1.00
H2       0.37680    1.26880    0.57219   1.00
H2       0.32682    1.25398    0.57911   1.00
H2       0.36689    1.10678    0.59679   1.00
H2       0.36951    1.06120    0.57024   1.00
H2       0.40934    1.07602    0.60122   1.00
C4       0.14433    0.91480    0.41575   1.00
C4       0.18567    0.91520    0.41425   1.00
C3       0.12256    0.87989    0.41020   1.00
C3       0.20744    0.88219    0.40161   1.00
C4       0.12350    0.95000    0.42266   1.00
C4       0.20650    0.94914    0.42586   1.00
C2       0.06148    0.91440    0.41482   1.00
C2       0.26852    0.91439    0.41485   1.00
C3       0.08190    0.87996    0.40941   1.00
C3       0.24810    0.88186    0.40232   1.00
C3       0.08194    0.94896    0.42191   1.00
C3       0.24806    0.94787    0.42599   1.00
H1       0.13612    0.85171    0.40729   1.00
H1       0.19388    0.85633    0.39004   1.00
C5       0.14435    0.98511    0.43069   1.00
C5       0.18565    0.98357    0.43646   1.00
H1       0.06614    0.85296    0.40480   1.00
H1       0.26386    0.85617    0.39282   1.00
H1       0.06447    0.97454    0.42736   1.00
H1       0.26553    0.97275    0.43406   1.00
C6       0.12266    1.02412    0.43154   1.00
C6       0.20734    1.01777    0.45522   1.00
H2       0.14142    1.04782    0.41993   1.00
H2       0.09763    1.02448    0.41120   1.00
C6       0.10776    1.03348    0.47278   1.00
H2       0.18858    1.03250    0.47712   1.00
H2       0.23237    1.00792    0.47302   1.00
C6       0.22224    1.04650    0.42419   1.00
H2       0.13226    1.03430    0.49405   1.00
C6       0.08668    1.07271    0.47325   1.00
H2       0.08740    1.01020    0.48274   1.00
C6       0.24332    1.08071    0.44339   1.00
H2       0.24260    1.03131    0.40392   1.00
H2       0.19774    1.05784    0.40617   1.00
H2       0.10678    1.09650    0.46421   1.00
H2       0.06120    1.07219    0.45320   1.00
H2       0.07602    1.07911    0.50318   1.00
H2       0.22322    1.09679    0.46311   1.00
H2       0.26880    1.07024    0.46049   1.00
H2       0.25398    1.10122    0.42066   1.00
C4       0.68567    0.91480    0.41425   1.00
C4       0.64433    0.91520    0.41575   1.00
C3       0.70744    0.87989    0.41980   1.00
C3       0.62256    0.88219    0.42839   1.00
C4       0.70650    0.95000    0.40734   1.00
C4       0.62350    0.94914    0.40414   1.00
C2       0.76852    0.91440    0.41518   1.00
C2       0.56148    0.91439    0.41515   1.00
C3       0.74810    0.87996    0.42059   1.00
C3       0.58190    0.88186    0.42768   1.00
C3       0.74806    0.94896    0.40809   1.00
C3       0.58194    0.94787    0.40401   1.00
H1       0.69388    0.85171    0.42271   1.00
H1       0.63612    0.85633    0.43996   1.00
C5       0.68565    0.98511    0.39931   1.00
C5       0.64435    0.98357    0.39354   1.00
H1       0.76386    0.85296    0.42520   1.00
H1       0.56614    0.85617    0.43718   1.00
H1       0.76553    0.97454    0.40264   1.00
H1       0.56447    0.97275    0.39594   1.00
C6       0.70734    1.02412    0.39846   1.00
C6       0.62266    1.01777    0.37478   1.00
H2       0.68858    1.04782    0.41007   1.00
H2       0.73237    1.02448    0.41880   1.00
C6       0.72224    1.03348    0.35722   1.00
H2       0.64142    1.03250    0.35288   1.00
H2       0.59763    1.00792    0.35698   1.00
C6       0.60776    1.04650    0.40581   1.00
H2       0.69774    1.03430    0.33595   1.00
C6       0.74332    1.07271    0.35675   1.00
H2       0.74260    1.01020    0.34726   1.00
C6       0.58668    1.08071    0.38661   1.00
H2       0.58740    1.03131    0.42608   1.00
H2       0.63226    1.05784    0.42383   1.00
H2       0.72322    1.09650    0.36579   1.00
H2       0.76880    1.07219    0.37680   1.00
H2       0.75398    1.07911    0.32682   1.00
H2       0.60678    1.09679    0.36689   1.00
H2       0.56120    1.07024    0.36951   1.00
H2       0.57602    1.10122    0.40934   1.00
C4       0.41575    0.64433    0.41480   1.00
C4       0.41425    0.68567    0.41520   1.00
C3       0.41020    0.62256    0.37989   1.00
C3       0.40161    0.70744    0.38219   1.00
C4       0.42266    0.62350    0.45000   1.00
C4       0.42586    0.70650    0.44914   1.00
C2       0.41482    0.56148    0.41440   1.00
C2       0.41485    0.76852    0.41439   1.00
C3       0.40941    0.58190    0.37996   1.00
C3       0.40232    0.74810    0.38186   1.00
C3       0.42191    0.58194    0.44896   1.00
C3       0.42599    0.74806    0.44787   1.00
H1       0.40729    0.63612    0.35171   1.00
H1       0.39004    0.69388    0.35633   1.00
C5       0.43069    0.64435    0.48511   1.00
C5       0.43646    0.68565    0.48357   1.00
H1       0.40480    0.56614    0.35296   1.00
H1       0.39282    0.76386    0.35617   1.00
H1       0.42736    0.56447    0.47454   1.00
H1       0.43406    0.76553    0.47275   1.00
C6       0.43154    0.62266    0.52412   1.00
C6       0.45522    0.70734    0.51777   1.00
H2       0.41993    0.64142    0.54782   1.00
H2       0.41120    0.59763    0.52448   1.00
C6       0.47278    0.60776    0.53348   1.00
H2       0.47712    0.68858    0.53250   1.00
H2       0.47302    0.73237    0.50792   1.00
C6       0.42419    0.72224    0.54650   1.00
H2       0.49405    0.63226    0.53430   1.00
C6       0.47325    0.58668    0.57271   1.00
H2       0.48274    0.58740    0.51020   1.00
C6       0.44339    0.74332    0.58071   1.00
H2       0.40392    0.74260    0.53131   1.00
H2       0.40617    0.69774    0.55784   1.00
H2       0.46421    0.60678    0.59650   1.00
H2       0.45320    0.56120    0.57219   1.00
H2       0.50318    0.57602    0.57911   1.00
H2       0.46311    0.72322    0.59679   1.00
H2       0.46049    0.76880    0.57024   1.00
H2       0.42066    0.75398    0.60122   1.00
C4       0.41480    0.91575    0.14433   1.00
C4       0.41520    0.91425    0.18567   1.00
C3       0.37989    0.91020    0.12256   1.00
C3       0.38219    0.90161    0.20744   1.00
C4       0.45000    0.92266    0.12350   1.00
C4       0.44914    0.92586    0.20650   1.00
C2       0.41440    0.91482    0.06148   1.00
C2       0.41439    0.91485    0.26852   1.00
C3       0.37996    0.90941    0.08190   1.00
C3       0.38186    0.90232    0.24810   1.00
C3       0.44896    0.92191    0.08194   1.00
C3       0.44787    0.92599    0.24806   1.00
H1       0.35171    0.90729    0.13612   1.00
H1       0.35633    0.89004    0.19388   1.00
C5       0.48511    0.93069    0.14435   1.00
C5       0.48357    0.93646    0.18565   1.00
H1       0.35296    0.90480    0.06614   1.00
H1       0.35617    0.89282    0.26386   1.00
H1       0.47454    0.92736    0.06447   1.00
H1       0.47275    0.93406    0.26553   1.00
C6       0.52412    0.93154    0.12266   1.00
C6       0.51777    0.95522    0.20734   1.00
H2       0.54782    0.91993    0.14142   1.00
H2       0.52448    0.91120    0.09763   1.00
C6       0.53348    0.97278    0.10776   1.00
H2       0.53250    0.97712    0.18858   1.00
H2       0.50792    0.97302    0.23237   1.00
C6       0.54650    0.92419    0.22224   1.00
H2       0.53430    0.99405    0.13226   1.00
C6       0.57271    0.97325    0.08668   1.00
H2       0.51020    0.98274    0.08740   1.00
C6       0.58071    0.94339    0.24332   1.00
H2       0.53131    0.90392    0.24260   1.00
H2       0.55784    0.90617    0.19774   1.00
H2       0.59650    0.96421    0.10678   1.00
H2       0.57219    0.95320    0.06120   1.00
H2       0.57911    1.00318    0.07602   1.00
H2       0.59679    0.96311    0.22322   1.00
H2       0.57024    0.96049    0.26880   1.00
H2       0.60122    0.92066    0.25398   1.00
C4       0.91480    0.41425    0.68567   1.00
C4       0.91520    0.41575    0.64433   1.00
C3       0.87989    0.41980    0.70744   1.00
C3       0.88219    0.42839    0.62256   1.00
C4       0.95000    0.40734    0.70650   1.00
C4       0.94914    0.40414    0.62350   1.00
C2       0.91440    0.41518    0.76852   1.00
C2       0.91439    0.41515    0.56148   1.00
C3       0.87996    0.42059    0.74810   1.00
C3       0.88186    0.42768    0.58190   1.00
C3       0.94896    0.40809    0.74806   1.00
C3       0.94787    0.40401    0.58194   1.00
H1       0.85171    0.42271    0.69388   1.00
H1       0.85633    0.43996    0.63612   1.00
C5       0.98511    0.39931    0.68565   1.00
C5       0.98357    0.39354    0.64435   1.00
H1       0.85296    0.42520    0.76386   1.00
H1       0.85617    0.43718    0.56614   1.00
H1       0.97454    0.40264    0.76553   1.00
H1       0.97275    0.39594    0.56447   1.00
C6       1.02412    0.39846    0.70734   1.00
C6       1.01777    0.37478    0.62266   1.00
H2       1.04782    0.41007    0.68858   1.00
H2       1.02448    0.41880    0.73237   1.00
C6       1.03348    0.35722    0.72224   1.00
H2       1.03250    0.35288    0.64142   1.00
H2       1.00792    0.35698    0.59763   1.00
C6       1.04650    0.40581    0.60776   1.00
H2       1.03430    0.33595    0.69774   1.00
C6       1.07271    0.35675    0.74332   1.00
H2       1.01020    0.34726    0.74260   1.00
C6       1.08071    0.38661    0.58668   1.00
H2       1.03131    0.42608    0.58740   1.00
H2       1.05784    0.42383    0.63226   1.00
H2       1.09650    0.36579    0.72322   1.00
H2       1.07219    0.37680    0.76880   1.00
H2       1.07911    0.32682    0.75398   1.00
H2       1.09679    0.36689    0.60678   1.00
H2       1.07024    0.36951    0.56120   1.00
H2       1.10122    0.40934    0.57602   1.00
C4       0.91425    0.68567    0.41480   1.00
C4       0.91575    0.64433    0.41520   1.00
C3       0.91980    0.70744    0.37989   1.00
C3       0.92839    0.62256    0.38219   1.00
C4       0.90734    0.70650    0.45000   1.00
C4       0.90414    0.62350    0.44914   1.00
C2       0.91518    0.76852    0.41440   1.00
C2       0.91515    0.56148    0.41439   1.00
C3       0.92059    0.74810    0.37996   1.00
C3       0.92768    0.58190    0.38186   1.00
C3       0.90809    0.74806    0.44896   1.00
C3       0.90401    0.58194    0.44787   1.00
H1       0.92271    0.69388    0.35171   1.00
H1       0.93996    0.63612    0.35633   1.00
C5       0.89931    0.68565    0.48511   1.00
C5       0.89354    0.64435    0.48357   1.00
H1       0.92520    0.76386    0.35296   1.00
H1       0.93718    0.56614    0.35617   1.00
H1       0.90264    0.76553    0.47454   1.00
H1       0.89594    0.56447    0.47275   1.00
C6       0.89846    0.70734    0.52412   1.00
C6       0.87478    0.62266    0.51777   1.00
H2       0.91007    0.68858    0.54782   1.00
H2       0.91880    0.73237    0.52448   1.00
C6       0.85722    0.72224    0.53348   1.00
H2       0.85288    0.64142    0.53250   1.00
H2       0.85698    0.59763    0.50792   1.00
C6       0.90581    0.60776    0.54650   1.00
H2       0.83595    0.69774    0.53430   1.00
C6       0.85675    0.74332    0.57271   1.00
H2       0.84726    0.74260    0.51020   1.00
C6       0.88661    0.58668    0.58071   1.00
H2       0.92608    0.58740    0.53131   1.00
H2       0.92383    0.63226    0.55784   1.00
H2       0.86579    0.72322    0.59650   1.00
H2       0.87680    0.76880    0.57219   1.00
H2       0.82682    0.75398    0.57911   1.00
H2       0.86689    0.60678    0.59679   1.00
H2       0.86951    0.56120    0.57024   1.00
H2       0.90934    0.57602    0.60122   1.00
C4       0.64433    0.41480    0.41575   1.00
C4       0.68567    0.41520    0.41425   1.00
C3       0.62256    0.37989    0.41020   1.00
C3       0.70744    0.38219    0.40161   1.00
C4       0.62350    0.45000    0.42266   1.00
C4       0.70650    0.44914    0.42586   1.00
C2       0.56148    0.41440    0.41482   1.00
C2       0.76852    0.41439    0.41485   1.00
C3       0.58190    0.37996    0.40941   1.00
C3       0.74810    0.38186    0.40232   1.00
C3       0.58194    0.44896    0.42191   1.00
C3       0.74806    0.44787    0.42599   1.00
H1       0.63612    0.35171    0.40729   1.00
H1       0.69388    0.35633    0.39004   1.00
C5       0.64435    0.48511    0.43069   1.00
C5       0.68565    0.48357    0.43646   1.00
H1       0.56614    0.35296    0.40480   1.00
H1       0.76386    0.35617    0.39282   1.00
H1       0.56447    0.47454    0.42736   1.00
H1       0.76553    0.47275    0.43406   1.00
C6       0.62266    0.52412    0.43154   1.00
C6       0.70734    0.51777    0.45522   1.00
H2       0.64142    0.54782    0.41993   1.00
H2       0.59763    0.52448    0.41120   1.00
C6       0.60776    0.53348    0.47278   1.00
H2       0.68858    0.53250    0.47712   1.00
H2       0.73237    0.50792    0.47302   1.00
C6       0.72224    0.54650    0.42419   1.00
H2       0.63226    0.53430    0.49405   1.00
C6       0.58668    0.57271    0.47325   1.00
H2       0.58740    0.51020    0.48274   1.00
C6       0.74332    0.58071    0.44339   1.00
H2       0.74260    0.53131    0.40392   1.00
H2       0.69774    0.55784    0.40617   1.00
H2       0.60678    0.59650    0.46421   1.00
H2       0.56120    0.57219    0.45320   1.00
H2       0.57602    0.57911    0.50318   1.00
H2       0.72322    0.59679    0.46311   1.00
H2       0.76880    0.57024    0.46049   1.00
H2       0.75398    0.60122    0.42066   1.00
C4       1.18567    0.41480    0.41425   1.00
C4       1.14433    0.41520    0.41575   1.00
C3       1.20744    0.37989    0.41980   1.00
C3       1.12256    0.38219    0.42839   1.00
C4       1.20650    0.45000    0.40734   1.00
C4       1.12350    0.44914    0.40414   1.00
C2       1.26852    0.41440    0.41518   1.00
C2       1.06148    0.41439    0.41515   1.00
C3       1.24810    0.37996    0.42059   1.00
C3       1.08190    0.38186    0.42768   1.00
C3       1.24806    0.44896    0.40809   1.00
C3       1.08194    0.44787    0.40401   1.00
H1       1.19388    0.35171    0.42271   1.00
H1       1.13612    0.35633    0.43996   1.00
C5       1.18565    0.48511    0.39931   1.00
C5       1.14435    0.48357    0.39354   1.00
H1       1.26386    0.35296    0.42520   1.00
H1       1.06614    0.35617    0.43718   1.00
H1       1.26553    0.47454    0.40264   1.00
H1       1.06447    0.47275    0.39594   1.00
C6       1.20734    0.52412    0.39846   1.00
C6       1.12266    0.51777    0.37478   1.00
H2       1.18858    0.54782    0.41007   1.00
H2       1.23237    0.52448    0.41880   1.00
C6       1.22224    0.53348    0.35722   1.00
H2       1.14142    0.53250    0.35288   1.00
H2       1.09763    0.50792    0.35698   1.00
C6       1.10776    0.54650    0.40581   1.00
H2       1.19774    0.53430    0.33595   1.00
C6       1.24332    0.57271    0.35675   1.00
H2       1.24260    0.51020    0.34726   1.00
C6       1.08668    0.58071    0.38661   1.00
H2       1.08740    0.53131    0.42608   1.00
H2       1.13226    0.55784    0.42383   1.00
H2       1.22322    0.59650    0.36579   1.00
H2       1.26880    0.57219    0.37680   1.00
H2       1.25398    0.57911    0.32682   1.00
H2       1.10678    0.59679    0.36689   1.00
H2       1.06120    0.57024    0.36951   1.00
H2       1.07602    0.60122    0.40934   1.00
C4       0.91575    0.14433    0.41480   1.00
C4       0.91425    0.18567    0.41520   1.00
C3       0.91020    0.12256    0.37989   1.00
C3       0.90161    0.20744    0.38219   1.00
C4       0.92266    0.12350    0.45000   1.00
C4       0.92586    0.20650    0.44914   1.00
C2       0.91482    0.06148    0.41440   1.00
C2       0.91485    0.26852    0.41439   1.00
C3       0.90941    0.08190    0.37996   1.00
C3       0.90232    0.24810    0.38186   1.00
C3       0.92191    0.08194    0.44896   1.00
C3       0.92599    0.24806    0.44787   1.00
H1       0.90729    0.13612    0.35171   1.00
H1       0.89004    0.19388    0.35633   1.00
C5       0.93069    0.14435    0.48511   1.00
C5       0.93646    0.18565    0.48357   1.00
H1       0.90480    0.06614    0.35296   1.00
H1       0.89282    0.26386    0.35617   1.00
H1       0.92736    0.06447    0.47454   1.00
H1       0.93406    0.26553    0.47275   1.00
C6       0.93154    0.12266    0.52412   1.00
C6       0.95522    0.20734    0.51777   1.00
H2       0.91993    0.14142    0.54782   1.00
H2       0.91120    0.09763    0.52448   1.00
C6       0.97278    0.10776    0.53348   1.00
H2       0.97712    0.18858    0.53250   1.00
H2       0.97302    0.23237    0.50792   1.00
C6       0.92419    0.22224    0.54650   1.00
H2       0.99405    0.13226    0.53430   1.00
C6       0.97325    0.08668    0.57271   1.00
H2       0.98274    0.08740    0.51020   1.00
C6       0.94339    0.24332    0.58071   1.00
H2       0.90392    0.24260    0.53131   1.00
H2       0.90617    0.19774    0.55784   1.00
H2       0.96421    0.10678    0.59650   1.00
H2       0.95320    0.06120    0.57219   1.00
H2       1.00318    0.07602    0.57911   1.00
H2       0.96311    0.22322    0.59679   1.00
H2       0.96049    0.26880    0.57024   1.00
H2       0.92066    0.25398    0.60122   1.00
C4       0.91480    0.41575    0.14433   1.00
C4       0.91520    0.41425    0.18567   1.00
C3       0.87989    0.41020    0.12256   1.00
C3       0.88219    0.40161    0.20744   1.00
C4       0.95000    0.42266    0.12350   1.00
C4       0.94914    0.42586    0.20650   1.00
C2       0.91440    0.41482    0.06148   1.00
C2       0.91439    0.41485    0.26852   1.00
C3       0.87996    0.40941    0.08190   1.00
C3       0.88186    0.40232    0.24810   1.00
C3       0.94896    0.42191    0.08194   1.00
C3       0.94787    0.42599    0.24806   1.00
H1       0.85171    0.40729    0.13612   1.00
H1       0.85633    0.39004    0.19388   1.00
C5       0.98511    0.43069    0.14435   1.00
C5       0.98357    0.43646    0.18565   1.00
H1       0.85296    0.40480    0.06614   1.00
H1       0.85617    0.39282    0.26386   1.00
H1       0.97454    0.42736    0.06447   1.00
H1       0.97275    0.43406    0.26553   1.00
C6       1.02412    0.43154    0.12266   1.00
C6       1.01777    0.45522    0.20734   1.00
H2       1.04782    0.41993    0.14142   1.00
H2       1.02448    0.41120    0.09763   1.00
C6       1.03348    0.47278    0.10776   1.00
H2       1.03250    0.47712    0.18858   1.00
H2       1.00792    0.47302    0.23237   1.00
C6       1.04650    0.42419    0.22224   1.00
H2       1.03430    0.49405    0.13226   1.00
C6       1.07271    0.47325    0.08668   1.00
H2       1.01020    0.48274    0.08740   1.00
C6       1.08071    0.44339    0.24332   1.00
H2       1.03131    0.40392    0.24260   1.00
H2       1.05784    0.40617    0.19774   1.00
H2       1.09650    0.46421    0.10678   1.00
H2       1.07219    0.45320    0.06120   1.00
H2       1.07911    0.50318    0.07602   1.00
H2       1.09679    0.46311    0.22322   1.00
H2       1.07024    0.46049    0.26880   1.00
H2       1.10122    0.42066    0.25398   1.00
