data_IRMOF10_SG202_interpen_Ligand10cp_label_w.

_audit_creation_method             'generated by an auxiliary program of Tobunporous'

_symmetry_space_group_name_H-M     'P 1'
_symmetry_Int_Tables_number        1
_symmetry_cell_setting             triclinic

_cell_length_a                    34.2800
_cell_length_b                    34.2800
_cell_length_c                    34.2800
_cell_angle_alpha                 90.0000
_cell_angle_beta                  90.0000
_cell_angle_gamma                 90.0000

loop_
_atom_site_label
_atom_site_fract_x
_atom_site_fract_y
_atom_site_fract_z
_atom_site_occupancy
O1       0.75000    0.75000    0.75000   1.00
Zn1      0.71720    0.78280    0.78280   1.00
Zn1      0.78280    0.71720    0.78280   1.00
Zn1      0.78280    0.78280    0.71720   1.00
Zn1      0.71720    0.71720    0.71720   1.00
O2       0.72650    0.77350    0.83820   1.00
O2       0.72650    0.83820    0.77350   1.00
O2       0.66180    0.77350    0.77350   1.00
O2       0.77350    0.72650    0.83820   1.00
O2       0.83820    0.72650    0.77350   1.00
O2       0.77350    0.66180    0.77350   1.00
O2       0.77350    0.83820    0.72650   1.00
O2       0.83820    0.77350    0.72650   1.00
O2       0.77350    0.77350    0.66180   1.00
O2       0.66180    0.72650    0.72650   1.00
O2       0.72650    0.66180    0.72650   1.00
O2       0.72650    0.72650    0.66180   1.00
C1       0.75000    0.75000    0.85520   1.00
C1       0.75000    0.85520    0.75000   1.00
C1       0.64480    0.75000    0.75000   1.00
C1       0.85520    0.75000    0.75000   1.00
C1       0.75000    0.64480    0.75000   1.00
C1       0.75000    0.75000    0.64480   1.00
O1       0.25000    0.25000    0.75000   1.00
Zn1      0.21720    0.28280    0.78280   1.00
Zn1      0.28280    0.21720    0.78280   1.00
Zn1      0.28280    0.28280    0.71720   1.00
Zn1      0.21720    0.21720    0.71720   1.00
O2       0.22650    0.27350    0.83820   1.00
O2       0.22650    0.33820    0.77350   1.00
O2       0.16180    0.27350    0.77350   1.00
O2       0.27350    0.22650    0.83820   1.00
O2       0.33820    0.22650    0.77350   1.00
O2       0.27350    0.16180    0.77350   1.00
O2       0.27350    0.33820    0.72650   1.00
O2       0.33820    0.27350    0.72650   1.00
O2       0.27350    0.27350    0.66180   1.00
O2       0.16180    0.22650    0.72650   1.00
O2       0.22650    0.16180    0.72650   1.00
O2       0.22650    0.22650    0.66180   1.00
C1       0.25000    0.25000    0.85520   1.00
C1       0.25000    0.35520    0.75000   1.00
C1       0.14480    0.25000    0.75000   1.00
C1       0.35520    0.25000    0.75000   1.00
C1       0.25000    0.14480    0.75000   1.00
C1       0.25000    0.25000    0.64480   1.00
O1       0.25000    0.75000    0.25000   1.00
Zn1      0.21720    0.78280    0.28280   1.00
Zn1      0.28280    0.71720    0.28280   1.00
Zn1      0.28280    0.78280    0.21720   1.00
Zn1      0.21720    0.71720    0.21720   1.00
O2       0.22650    0.77350    0.33820   1.00
O2       0.22650    0.83820    0.27350   1.00
O2       0.16180    0.77350    0.27350   1.00
O2       0.27350    0.72650    0.33820   1.00
O2       0.33820    0.72650    0.27350   1.00
O2       0.27350    0.66180    0.27350   1.00
O2       0.27350    0.83820    0.22650   1.00
O2       0.33820    0.77350    0.22650   1.00
O2       0.27350    0.77350    0.16180   1.00
O2       0.16180    0.72650    0.22650   1.00
O2       0.22650    0.66180    0.22650   1.00
O2       0.22650    0.72650    0.16180   1.00
C1       0.25000    0.75000    0.35520   1.00
C1       0.25000    0.85520    0.25000   1.00
C1       0.14480    0.75000    0.25000   1.00
C1       0.35520    0.75000    0.25000   1.00
C1       0.25000    0.64480    0.25000   1.00
C1       0.25000    0.75000    0.14480   1.00
O1       0.75000    0.25000    0.25000   1.00
Zn1      0.71720    0.28280    0.28280   1.00
Zn1      0.78280    0.21720    0.28280   1.00
Zn1      0.78280    0.28280    0.21720   1.00
Zn1      0.71720    0.21720    0.21720   1.00
O2       0.72650    0.27350    0.33820   1.00
O2       0.72650    0.33820    0.27350   1.00
O2       0.66180    0.27350    0.27350   1.00
O2       0.77350    0.22650    0.33820   1.00
O2       0.83820    0.22650    0.27350   1.00
O2       0.77350    0.16180    0.27350   1.00
O2       0.77350    0.33820    0.22650   1.00
O2       0.83820    0.27350    0.22650   1.00
O2       0.77350    0.27350    0.16180   1.00
O2       0.66180    0.22650    0.22650   1.00
O2       0.72650    0.16180    0.22650   1.00
O2       0.72650    0.22650    0.16180   1.00
C1       0.75000    0.25000    0.35520   1.00
C1       0.75000    0.35520    0.25000   1.00
C1       0.64480    0.25000    0.25000   1.00
C1       0.85520    0.25000    0.25000   1.00
C1       0.75000    0.14480    0.25000   1.00
C1       0.75000    0.25000    0.14480   1.00
O1       0.25000    0.25000    0.25000   1.00
Zn1      0.28280    0.21720    0.21720   1.00
Zn1      0.21720    0.28280    0.21720   1.00
Zn1      0.21720    0.21720    0.28280   1.00
Zn1      0.28280    0.28280    0.28280   1.00
O2       0.27350    0.22650    0.16180   1.00
O2       0.27350    0.16180    0.22650   1.00
O2       0.33820    0.22650    0.22650   1.00
O2       0.22650    0.27350    0.16180   1.00
O2       0.16180    0.27350    0.22650   1.00
O2       0.22650    0.33820    0.22650   1.00
O2       0.22650    0.16180    0.27350   1.00
O2       0.16180    0.22650    0.27350   1.00
O2       0.22650    0.22650    0.33820   1.00
O2       0.33820    0.27350    0.27350   1.00
O2       0.27350    0.33820    0.27350   1.00
O2       0.27350    0.27350    0.33820   1.00
C1       0.25000    0.25000    0.14480   1.00
C1       0.25000    0.14480    0.25000   1.00
C1       0.35520    0.25000    0.25000   1.00
C1       0.14480    0.25000    0.25000   1.00
C1       0.25000    0.35520    0.25000   1.00
C1       0.25000    0.25000    0.35520   1.00
O1       0.75000    0.75000    0.25000   1.00
Zn1      0.78280    0.71720    0.21720   1.00
Zn1      0.71720    0.78280    0.21720   1.00
Zn1      0.71720    0.71720    0.28280   1.00
Zn1      0.78280    0.78280    0.28280   1.00
O2       0.77350    0.72650    0.16180   1.00
O2       0.77350    0.66180    0.22650   1.00
O2       0.83820    0.72650    0.22650   1.00
O2       0.72650    0.77350    0.16180   1.00
O2       0.66180    0.77350    0.22650   1.00
O2       0.72650    0.83820    0.22650   1.00
O2       0.72650    0.66180    0.27350   1.00
O2       0.66180    0.72650    0.27350   1.00
O2       0.72650    0.72650    0.33820   1.00
O2       0.83820    0.77350    0.27350   1.00
O2       0.77350    0.83820    0.27350   1.00
O2       0.77350    0.77350    0.33820   1.00
C1       0.75000    0.75000    0.14480   1.00
C1       0.75000    0.64480    0.25000   1.00
C1       0.85520    0.75000    0.25000   1.00
C1       0.64480    0.75000    0.25000   1.00
C1       0.75000    0.85520    0.25000   1.00
C1       0.75000    0.75000    0.35520   1.00
O1       0.75000    0.25000    0.75000   1.00
Zn1      0.78280    0.21720    0.71720   1.00
Zn1      0.71720    0.28280    0.71720   1.00
Zn1      0.71720    0.21720    0.78280   1.00
Zn1      0.78280    0.28280    0.78280   1.00
O2       0.77350    0.22650    0.66180   1.00
O2       0.77350    0.16180    0.72650   1.00
O2       0.83820    0.22650    0.72650   1.00
O2       0.72650    0.27350    0.66180   1.00
O2       0.66180    0.27350    0.72650   1.00
O2       0.72650    0.33820    0.72650   1.00
O2       0.72650    0.16180    0.77350   1.00
O2       0.66180    0.22650    0.77350   1.00
O2       0.72650    0.22650    0.83820   1.00
O2       0.83820    0.27350    0.77350   1.00
O2       0.77350    0.33820    0.77350   1.00
O2       0.77350    0.27350    0.83820   1.00
C1       0.75000    0.25000    0.64480   1.00
C1       0.75000    0.14480    0.75000   1.00
C1       0.85520    0.25000    0.75000   1.00
C1       0.64480    0.25000    0.75000   1.00
C1       0.75000    0.35520    0.75000   1.00
C1       0.75000    0.25000    0.85520   1.00
O1       0.25000    0.75000    0.75000   1.00
Zn1      0.28280    0.71720    0.71720   1.00
Zn1      0.21720    0.78280    0.71720   1.00
Zn1      0.21720    0.71720    0.78280   1.00
Zn1      0.28280    0.78280    0.78280   1.00
O2       0.27350    0.72650    0.66180   1.00
O2       0.27350    0.66180    0.72650   1.00
O2       0.33820    0.72650    0.72650   1.00
O2       0.22650    0.77350    0.66180   1.00
O2       0.16180    0.77350    0.72650   1.00
O2       0.22650    0.83820    0.72650   1.00
O2       0.22650    0.66180    0.77350   1.00
O2       0.16180    0.72650    0.77350   1.00
O2       0.22650    0.72650    0.83820   1.00
O2       0.33820    0.77350    0.77350   1.00
O2       0.27350    0.83820    0.77350   1.00
O2       0.27350    0.77350    0.83820   1.00
C1       0.25000    0.75000    0.64480   1.00
C1       0.25000    0.64480    0.75000   1.00
C1       0.35520    0.75000    0.75000   1.00
C1       0.14480    0.75000    0.75000   1.00
C1       0.25000    0.85520    0.75000   1.00
C1       0.25000    0.75000    0.85520   1.00
O1       0.91500    0.91500    0.91500   1.00
Zn1      0.88220    0.94780    0.94780   1.00
Zn1      0.94780    0.88220    0.94780   1.00
Zn1      0.94780    0.94780    0.88220   1.00
Zn1      0.88220    0.88220    0.88220   1.00
O2       0.89150    0.93850    1.00320   1.00
O2       0.89150    1.00320    0.93850   1.00
O2       0.82680    0.93850    0.93850   1.00
O2       0.93850    0.89150    1.00320   1.00
O2       1.00320    0.89150    0.93850   1.00
O2       0.93850    0.82680    0.93850   1.00
O2       0.93850    1.00320    0.89150   1.00
O2       1.00320    0.93850    0.89150   1.00
O2       0.93850    0.93850    0.82680   1.00
O2       0.82680    0.89150    0.89150   1.00
O2       0.89150    0.82680    0.89150   1.00
O2       0.89150    0.89150    0.82680   1.00
C1       0.91500    0.91500    1.02020   1.00
C1       0.91500    1.02020    0.91500   1.00
C1       0.80980    0.91500    0.91500   1.00
C1       1.02020    0.91500    0.91500   1.00
C1       0.91500    0.80980    0.91500   1.00
C1       0.91500    0.91500    0.80980   1.00
O1       0.41500    0.41500    0.91500   1.00
Zn1      0.38220    0.44780    0.94780   1.00
Zn1      0.44780    0.38220    0.94780   1.00
Zn1      0.44780    0.44780    0.88220   1.00
Zn1      0.38220    0.38220    0.88220   1.00
O2       0.39150    0.43850    1.00320   1.00
O2       0.39150    0.50320    0.93850   1.00
O2       0.32680    0.43850    0.93850   1.00
O2       0.43850    0.39150    1.00320   1.00
O2       0.50320    0.39150    0.93850   1.00
O2       0.43850    0.32680    0.93850   1.00
O2       0.43850    0.50320    0.89150   1.00
O2       0.50320    0.43850    0.89150   1.00
O2       0.43850    0.43850    0.82680   1.00
O2       0.32680    0.39150    0.89150   1.00
O2       0.39150    0.32680    0.89150   1.00
O2       0.39150    0.39150    0.82680   1.00
C1       0.41500    0.41500    1.02020   1.00
C1       0.41500    0.52020    0.91500   1.00
C1       0.30980    0.41500    0.91500   1.00
C1       0.52020    0.41500    0.91500   1.00
C1       0.41500    0.30980    0.91500   1.00
C1       0.41500    0.41500    0.80980   1.00
O1       0.41500    0.91500    0.41500   1.00
Zn1      0.38220    0.94780    0.44780   1.00
Zn1      0.44780    0.88220    0.44780   1.00
Zn1      0.44780    0.94780    0.38220   1.00
Zn1      0.38220    0.88220    0.38220   1.00
O2       0.39150    0.93850    0.50320   1.00
O2       0.39150    1.00320    0.43850   1.00
O2       0.32680    0.93850    0.43850   1.00
O2       0.43850    0.89150    0.50320   1.00
O2       0.50320    0.89150    0.43850   1.00
O2       0.43850    0.82680    0.43850   1.00
O2       0.43850    1.00320    0.39150   1.00
O2       0.50320    0.93850    0.39150   1.00
O2       0.43850    0.93850    0.32680   1.00
O2       0.32680    0.89150    0.39150   1.00
O2       0.39150    0.82680    0.39150   1.00
O2       0.39150    0.89150    0.32680   1.00
C1       0.41500    0.91500    0.52020   1.00
C1       0.41500    1.02020    0.41500   1.00
C1       0.30980    0.91500    0.41500   1.00
C1       0.52020    0.91500    0.41500   1.00
C1       0.41500    0.80980    0.41500   1.00
C1       0.41500    0.91500    0.30980   1.00
O1       0.91500    0.41500    0.41500   1.00
Zn1      0.88220    0.44780    0.44780   1.00
Zn1      0.94780    0.38220    0.44780   1.00
Zn1      0.94780    0.44780    0.38220   1.00
Zn1      0.88220    0.38220    0.38220   1.00
O2       0.89150    0.43850    0.50320   1.00
O2       0.89150    0.50320    0.43850   1.00
O2       0.82680    0.43850    0.43850   1.00
O2       0.93850    0.39150    0.50320   1.00
O2       1.00320    0.39150    0.43850   1.00
O2       0.93850    0.32680    0.43850   1.00
O2       0.93850    0.50320    0.39150   1.00
O2       1.00320    0.43850    0.39150   1.00
O2       0.93850    0.43850    0.32680   1.00
O2       0.82680    0.39150    0.39150   1.00
O2       0.89150    0.32680    0.39150   1.00
O2       0.89150    0.39150    0.32680   1.00
C1       0.91500    0.41500    0.52020   1.00
C1       0.91500    0.52020    0.41500   1.00
C1       0.80980    0.41500    0.41500   1.00
C1       1.02020    0.41500    0.41500   1.00
C1       0.91500    0.30980    0.41500   1.00
C1       0.91500    0.41500    0.30980   1.00
O1       0.41500    0.41500    0.41500   1.00
Zn1      0.44780    0.38220    0.38220   1.00
Zn1      0.38220    0.44780    0.38220   1.00
Zn1      0.38220    0.38220    0.44780   1.00
Zn1      0.44780    0.44780    0.44780   1.00
O2       0.43850    0.39150    0.32680   1.00
O2       0.43850    0.32680    0.39150   1.00
O2       0.50320    0.39150    0.39150   1.00
O2       0.39150    0.43850    0.32680   1.00
O2       0.32680    0.43850    0.39150   1.00
O2       0.39150    0.50320    0.39150   1.00
O2       0.39150    0.32680    0.43850   1.00
O2       0.32680    0.39150    0.43850   1.00
O2       0.39150    0.39150    0.50320   1.00
O2       0.50320    0.43850    0.43850   1.00
O2       0.43850    0.50320    0.43850   1.00
O2       0.43850    0.43850    0.50320   1.00
C1       0.41500    0.41500    0.30980   1.00
C1       0.41500    0.30980    0.41500   1.00
C1       0.52020    0.41500    0.41500   1.00
C1       0.30980    0.41500    0.41500   1.00
C1       0.41500    0.52020    0.41500   1.00
C1       0.41500    0.41500    0.52020   1.00
O1       0.91500    0.91500    0.41500   1.00
Zn1      0.94780    0.88220    0.38220   1.00
Zn1      0.88220    0.94780    0.38220   1.00
Zn1      0.88220    0.88220    0.44780   1.00
Zn1      0.94780    0.94780    0.44780   1.00
O2       0.93850    0.89150    0.32680   1.00
O2       0.93850    0.82680    0.39150   1.00
O2       1.00320    0.89150    0.39150   1.00
O2       0.89150    0.93850    0.32680   1.00
O2       0.82680    0.93850    0.39150   1.00
O2       0.89150    1.00320    0.39150   1.00
O2       0.89150    0.82680    0.43850   1.00
O2       0.82680    0.89150    0.43850   1.00
O2       0.89150    0.89150    0.50320   1.00
O2       1.00320    0.93850    0.43850   1.00
O2       0.93850    1.00320    0.43850   1.00
O2       0.93850    0.93850    0.50320   1.00
C1       0.91500    0.91500    0.30980   1.00
C1       0.91500    0.80980    0.41500   1.00
C1       1.02020    0.91500    0.41500   1.00
C1       0.80980    0.91500    0.41500   1.00
C1       0.91500    1.02020    0.41500   1.00
C1       0.91500    0.91500    0.52020   1.00
O1       0.91500    0.41500    0.91500   1.00
Zn1      0.94780    0.38220    0.88220   1.00
Zn1      0.88220    0.44780    0.88220   1.00
Zn1      0.88220    0.38220    0.94780   1.00
Zn1      0.94780    0.44780    0.94780   1.00
O2       0.93850    0.39150    0.82680   1.00
O2       0.93850    0.32680    0.89150   1.00
O2       1.00320    0.39150    0.89150   1.00
O2       0.89150    0.43850    0.82680   1.00
O2       0.82680    0.43850    0.89150   1.00
O2       0.89150    0.50320    0.89150   1.00
O2       0.89150    0.32680    0.93850   1.00
O2       0.82680    0.39150    0.93850   1.00
O2       0.89150    0.39150    1.00320   1.00
O2       1.00320    0.43850    0.93850   1.00
O2       0.93850    0.50320    0.93850   1.00
O2       0.93850    0.43850    1.00320   1.00
C1       0.91500    0.41500    0.80980   1.00
C1       0.91500    0.30980    0.91500   1.00
C1       1.02020    0.41500    0.91500   1.00
C1       0.80980    0.41500    0.91500   1.00
C1       0.91500    0.52020    0.91500   1.00
C1       0.91500    0.41500    1.02020   1.00
O1       0.41500    0.91500    0.91500   1.00
Zn1      0.44780    0.88220    0.88220   1.00
Zn1      0.38220    0.94780    0.88220   1.00
Zn1      0.38220    0.88220    0.94780   1.00
Zn1      0.44780    0.94780    0.94780   1.00
O2       0.43850    0.89150    0.82680   1.00
O2       0.43850    0.82680    0.89150   1.00
O2       0.50320    0.89150    0.89150   1.00
O2       0.39150    0.93850    0.82680   1.00
O2       0.32680    0.93850    0.89150   1.00
O2       0.39150    1.00320    0.89150   1.00
O2       0.39150    0.82680    0.93850   1.00
O2       0.32680    0.89150    0.93850   1.00
O2       0.39150    0.89150    1.00320   1.00
O2       0.50320    0.93850    0.93850   1.00
O2       0.43850    1.00320    0.93850   1.00
O2       0.43850    0.93850    1.00320   1.00
C1       0.41500    0.91500    0.80980   1.00
C1       0.41500    0.80980    0.91500   1.00
C1       0.52020    0.91500    0.91500   1.00
C1       0.30980    0.91500    0.91500   1.00
C1       0.41500    1.02020    0.91500   1.00
C1       0.41500    0.91500    1.02020   1.00
C4       0.74962    0.74996    0.97915   1.00
C4       0.75038    0.75004    1.02085   1.00
C3       0.73365    0.78132    0.95751   1.00
C3       0.75875    0.78416    1.04252   1.00
C3       0.76566    0.71873    0.95738   1.00
C3       0.74189    0.71596    1.04259   1.00
C2       0.74998    0.75016    0.89482   1.00
C2       0.74998    0.75016    1.10518   1.00
C3a      0.73374    0.78155    0.91599   1.00
C3       0.75855    0.78414    1.08382   1.00
C3       0.76581    0.71890    0.91611   1.00
C3a      0.74166    0.71582    1.08403   1.00
H1       0.72073    0.80565    0.97294   1.00
H1       0.76586    0.81103    1.02750   1.00
C5       0.71630    0.81537    0.89410   1.00
H1       0.76515    0.81086    1.09933   1.00
H1       0.77864    0.69458    0.90056   1.00
C5       0.73243    0.67854    1.10535   1.00
H1       0.73420    0.68933    1.02747   1.00
H1       0.77895    0.69427    0.97230   1.00
H2       0.75535    0.65668    1.09837   1.00
H2       0.73296    0.68303    1.13747   1.00
N1       0.69399    0.66389    1.09395   1.00
C6       0.68337    0.65183    1.05810   1.00
C6       0.66288    0.65963    1.11757   1.00
C6       0.64494    0.63989    1.05873   1.00
C6       0.63191    0.64486    1.09656   1.00
H3       0.70232    0.65163    1.03281   1.00
H3       0.66258    0.66694    1.14831   1.00
H3       0.62829    0.62875    1.03436   1.00
H3       0.60307    0.63841    1.10758   1.00
H2       0.71981    0.81021    0.86228   1.00
H2       0.68454    0.81801    0.90001   1.00
N1       0.73553    0.85170    0.90523   1.00
C6       0.75692    0.87738    0.88078   1.00
C6       0.73659    0.86902    0.94285   1.00
C6       0.77015    0.90843    0.90277   1.00
C6       0.75768    0.90329    0.94091   1.00
H3       0.76199    0.87301    0.84992   1.00
H3       0.72325    0.85683    0.96876   1.00
H3       0.78737    0.93259    0.89205   1.00
H3       0.76354    0.92273    0.96505   1.00
C4       0.74996    0.97915    0.74962   1.00
C4       0.75004    1.02085    0.75038   1.00
C3       0.78132    0.95751    0.73365   1.00
C3       0.78416    1.04252    0.75875   1.00
C3       0.71873    0.95738    0.76566   1.00
C3       0.71596    1.04259    0.74189   1.00
C2       0.75016    0.89482    0.74998   1.00
C2       0.75016    1.10518    0.74998   1.00
C3a      0.78155    0.91599    0.73374   1.00
C3       0.78414    1.08382    0.75855   1.00
C3       0.71890    0.91611    0.76581   1.00
C3a      0.71582    1.08403    0.74166   1.00
H1       0.80565    0.97294    0.72073   1.00
H1       0.81103    1.02750    0.76586   1.00
C5       0.81537    0.89410    0.71630   1.00
H1       0.81086    1.09933    0.76515   1.00
H1       0.69458    0.90056    0.77864   1.00
C5       0.67854    1.10535    0.73243   1.00
H1       0.68933    1.02747    0.73420   1.00
H1       0.69427    0.97230    0.77895   1.00
H2       0.65668    1.09837    0.75535   1.00
H2       0.68303    1.13747    0.73296   1.00
N1       0.66389    1.09395    0.69399   1.00
C6       0.65183    1.05810    0.68337   1.00
C6       0.65963    1.11757    0.66288   1.00
C6       0.63989    1.05873    0.64494   1.00
C6       0.64486    1.09656    0.63191   1.00
H3       0.65163    1.03281    0.70232   1.00
H3       0.66694    1.14831    0.66258   1.00
H3       0.62875    1.03436    0.62829   1.00
H3       0.63841    1.10758    0.60307   1.00
H2       0.81021    0.86228    0.71981   1.00
H2       0.81801    0.90001    0.68454   1.00
N1       0.85170    0.90523    0.73553   1.00
C6       0.87738    0.88078    0.75692   1.00
C6       0.86902    0.94285    0.73659   1.00
C6       0.90843    0.90277    0.77015   1.00
C6       0.90329    0.94091    0.75768   1.00
H3       0.87301    0.84992    0.76199   1.00
H3       0.85683    0.96876    0.72325   1.00
H3       0.93259    0.89205    0.78737   1.00
H3       0.92273    0.96505    0.76354   1.00
C4       0.52085    0.74962    0.75004   1.00
C4       0.47915    0.75038    0.74996   1.00
C3       0.54249    0.73365    0.71868   1.00
C3       0.45748    0.75875    0.71584   1.00
C3       0.54262    0.76566    0.78127   1.00
C3       0.45741    0.74189    0.78404   1.00
C2       0.60518    0.74998    0.74984   1.00
C2       0.39482    0.74998    0.74984   1.00
C3a      0.58401    0.73374    0.71845   1.00
C3       0.41618    0.75855    0.71586   1.00
C3       0.58389    0.76581    0.78110   1.00
C3a      0.41597    0.74166    0.78418   1.00
H1       0.52706    0.72073    0.69435   1.00
H1       0.47250    0.76586    0.68897   1.00
C5       0.60590    0.71630    0.68463   1.00
H1       0.40067    0.76515    0.68914   1.00
H1       0.59944    0.77864    0.80542   1.00
C5       0.39465    0.73243    0.82146   1.00
H1       0.47253    0.73420    0.81067   1.00
H1       0.52770    0.77895    0.80573   1.00
H2       0.40163    0.75535    0.84332   1.00
H2       0.36253    0.73296    0.81697   1.00
N1       0.40605    0.69399    0.83611   1.00
C6       0.44190    0.68337    0.84817   1.00
C6       0.38243    0.66288    0.84037   1.00
C6       0.44127    0.64494    0.86011   1.00
C6       0.40344    0.63191    0.85514   1.00
H3       0.46719    0.70232    0.84837   1.00
H3       0.35169    0.66258    0.83306   1.00
H3       0.46564    0.62829    0.87125   1.00
H3       0.39242    0.60307    0.86159   1.00
H2       0.63772    0.71981    0.68979   1.00
H2       0.59999    0.68454    0.68199   1.00
N1       0.59477    0.73553    0.64830   1.00
C6       0.61922    0.75692    0.62262   1.00
C6       0.55715    0.73659    0.63098   1.00
C6       0.59723    0.77015    0.59157   1.00
C6       0.55909    0.75768    0.59671   1.00
H3       0.65008    0.76199    0.62699   1.00
H3       0.53124    0.72325    0.64317   1.00
H3       0.60795    0.78737    0.56741   1.00
H3       0.53495    0.76354    0.57727   1.00
C4       0.97915    0.74962    0.74996   1.00
C4       1.02085    0.75038    0.75004   1.00
C3       0.95751    0.73365    0.78132   1.00
C3       1.04252    0.75875    0.78416   1.00
C3       0.95738    0.76566    0.71873   1.00
C3       1.04259    0.74189    0.71596   1.00
C2       0.89482    0.74998    0.75016   1.00
C2       1.10518    0.74998    0.75016   1.00
C3a      0.91599    0.73374    0.78155   1.00
C3       1.08382    0.75855    0.78414   1.00
C3       0.91611    0.76581    0.71890   1.00
C3a      1.08403    0.74166    0.71582   1.00
H1       0.97294    0.72073    0.80565   1.00
H1       1.02750    0.76586    0.81103   1.00
C5       0.89410    0.71630    0.81537   1.00
H1       1.09933    0.76515    0.81086   1.00
H1       0.90056    0.77864    0.69458   1.00
C5       1.10535    0.73243    0.67854   1.00
H1       1.02747    0.73420    0.68933   1.00
H1       0.97230    0.77895    0.69427   1.00
H2       1.09837    0.75535    0.65668   1.00
H2       1.13747    0.73296    0.68303   1.00
N1       1.09395    0.69399    0.66389   1.00
C6       1.05810    0.68337    0.65183   1.00
C6       1.11757    0.66288    0.65963   1.00
C6       1.05873    0.64494    0.63989   1.00
C6       1.09656    0.63191    0.64486   1.00
H3       1.03281    0.70232    0.65163   1.00
H3       1.14831    0.66258    0.66694   1.00
H3       1.03436    0.62829    0.62875   1.00
H3       1.10758    0.60307    0.63841   1.00
H2       0.86228    0.71981    0.81021   1.00
H2       0.90001    0.68454    0.81801   1.00
N1       0.90523    0.73553    0.85170   1.00
C6       0.88078    0.75692    0.87738   1.00
C6       0.94285    0.73659    0.86902   1.00
C6       0.90277    0.77015    0.90843   1.00
C6       0.94091    0.75768    0.90329   1.00
H3       0.84992    0.76199    0.87301   1.00
H3       0.96876    0.72325    0.85683   1.00
H3       0.89205    0.78737    0.93259   1.00
H3       0.96505    0.76354    0.92273   1.00
C4       0.75004    0.52085    0.74962   1.00
C4       0.74996    0.47915    0.75038   1.00
C3       0.71868    0.54249    0.73365   1.00
C3       0.71584    0.45748    0.75875   1.00
C3       0.78127    0.54262    0.76566   1.00
C3       0.78404    0.45741    0.74189   1.00
C2       0.74984    0.60518    0.74998   1.00
C2       0.74984    0.39482    0.74998   1.00
C3a      0.71845    0.58401    0.73374   1.00
C3       0.71586    0.41618    0.75855   1.00
C3       0.78110    0.58389    0.76581   1.00
C3a      0.78418    0.41597    0.74166   1.00
H1       0.69435    0.52706    0.72073   1.00
H1       0.68897    0.47250    0.76586   1.00
C5       0.68463    0.60590    0.71630   1.00
H1       0.68914    0.40067    0.76515   1.00
H1       0.80542    0.59944    0.77864   1.00
C5       0.82146    0.39465    0.73243   1.00
H1       0.81067    0.47253    0.73420   1.00
H1       0.80573    0.52770    0.77895   1.00
H2       0.84332    0.40163    0.75535   1.00
H2       0.81697    0.36253    0.73296   1.00
N1       0.83611    0.40605    0.69399   1.00
C6       0.84817    0.44190    0.68337   1.00
C6       0.84037    0.38243    0.66288   1.00
C6       0.86011    0.44127    0.64494   1.00
C6       0.85514    0.40344    0.63191   1.00
H3       0.84837    0.46719    0.70232   1.00
H3       0.83306    0.35169    0.66258   1.00
H3       0.87125    0.46564    0.62829   1.00
H3       0.86159    0.39242    0.60307   1.00
H2       0.68979    0.63772    0.71981   1.00
H2       0.68199    0.59999    0.68454   1.00
N1       0.64830    0.59477    0.73553   1.00
C6       0.62262    0.61922    0.75692   1.00
C6       0.63098    0.55715    0.73659   1.00
C6       0.59157    0.59723    0.77015   1.00
C6       0.59671    0.55909    0.75768   1.00
H3       0.62699    0.65008    0.76199   1.00
H3       0.64317    0.53124    0.72325   1.00
H3       0.56741    0.60795    0.78737   1.00
H3       0.57727    0.53495    0.76354   1.00
C4       0.74962    0.75004    0.52085   1.00
C4       0.75038    0.74996    0.47915   1.00
C3       0.73365    0.71868    0.54249   1.00
C3       0.75875    0.71584    0.45748   1.00
C3       0.76566    0.78127    0.54262   1.00
C3       0.74189    0.78404    0.45741   1.00
C2       0.74998    0.74984    0.60518   1.00
C2       0.74998    0.74984    0.39482   1.00
C3a      0.73374    0.71845    0.58401   1.00
C3       0.75855    0.71586    0.41618   1.00
C3       0.76581    0.78110    0.58389   1.00
C3a      0.74166    0.78418    0.41597   1.00
H1       0.72073    0.69435    0.52706   1.00
H1       0.76586    0.68897    0.47250   1.00
C5       0.71630    0.68463    0.60590   1.00
H1       0.76515    0.68914    0.40067   1.00
H1       0.77864    0.80542    0.59944   1.00
C5       0.73243    0.82146    0.39465   1.00
H1       0.73420    0.81067    0.47253   1.00
H1       0.77895    0.80573    0.52770   1.00
H2       0.75535    0.84332    0.40163   1.00
H2       0.73296    0.81697    0.36253   1.00
N1       0.69399    0.83611    0.40605   1.00
C6       0.68337    0.84817    0.44190   1.00
C6       0.66288    0.84037    0.38243   1.00
C6       0.64494    0.86011    0.44127   1.00
C6       0.63191    0.85514    0.40344   1.00
H3       0.70232    0.84837    0.46719   1.00
H3       0.66258    0.83306    0.35169   1.00
H3       0.62829    0.87125    0.46564   1.00
H3       0.60307    0.86159    0.39242   1.00
H2       0.71981    0.68979    0.63772   1.00
H2       0.68454    0.68199    0.59999   1.00
N1       0.73553    0.64830    0.59477   1.00
C6       0.75692    0.62262    0.61922   1.00
C6       0.73659    0.63098    0.55715   1.00
C6       0.77015    0.59157    0.59723   1.00
C6       0.75768    0.59671    0.55909   1.00
H3       0.76199    0.62699    0.65008   1.00
H3       0.72325    0.64317    0.53124   1.00
H3       0.78737    0.56741    0.60795   1.00
H3       0.76354    0.57727    0.53495   1.00
C4       0.24962    0.24996    0.97915   1.00
C4       0.25038    0.25004    1.02085   1.00
C3       0.23365    0.28132    0.95751   1.00
C3       0.25875    0.28416    1.04252   1.00
C3       0.26566    0.21873    0.95738   1.00
C3       0.24189    0.21596    1.04259   1.00
C2       0.24998    0.25016    0.89482   1.00
C2       0.24998    0.25016    1.10518   1.00
C3a      0.23374    0.28155    0.91599   1.00
C3       0.25855    0.28414    1.08382   1.00
C3       0.26581    0.21890    0.91611   1.00
C3a      0.24166    0.21582    1.08403   1.00
H1       0.22073    0.30565    0.97294   1.00
H1       0.26586    0.31103    1.02750   1.00
C5       0.21630    0.31537    0.89410   1.00
H1       0.26515    0.31086    1.09933   1.00
H1       0.27864    0.19458    0.90056   1.00
C5       0.23243    0.17854    1.10535   1.00
H1       0.23420    0.18933    1.02747   1.00
H1       0.27895    0.19427    0.97230   1.00
H2       0.25535    0.15668    1.09837   1.00
H2       0.23296    0.18303    1.13747   1.00
N1       0.19399    0.16389    1.09395   1.00
C6       0.18337    0.15183    1.05810   1.00
C6       0.16288    0.15963    1.11757   1.00
C6       0.14494    0.13989    1.05873   1.00
C6       0.13191    0.14486    1.09656   1.00
H3       0.20232    0.15163    1.03281   1.00
H3       0.16258    0.16694    1.14831   1.00
H3       0.12829    0.12875    1.03436   1.00
H3       0.10307    0.13841    1.10758   1.00
H2       0.21981    0.31021    0.86228   1.00
H2       0.18454    0.31801    0.90001   1.00
N1       0.23553    0.35170    0.90523   1.00
C6       0.25692    0.37738    0.88078   1.00
C6       0.23659    0.36902    0.94285   1.00
C6       0.27015    0.40843    0.90277   1.00
C6       0.25768    0.40329    0.94091   1.00
H3       0.26199    0.37301    0.84992   1.00
H3       0.22325    0.35683    0.96876   1.00
H3       0.28737    0.43259    0.89205   1.00
H3       0.26354    0.42273    0.96505   1.00
C4       0.24996    0.47915    0.74962   1.00
C4       0.25004    0.52085    0.75038   1.00
C3       0.28132    0.45751    0.73365   1.00
C3       0.28416    0.54252    0.75875   1.00
C3       0.21873    0.45738    0.76566   1.00
C3       0.21596    0.54259    0.74189   1.00
C2       0.25016    0.39482    0.74998   1.00
C2       0.25016    0.60518    0.74998   1.00
C3a      0.28155    0.41599    0.73374   1.00
C3       0.28414    0.58382    0.75855   1.00
C3       0.21890    0.41611    0.76581   1.00
C3a      0.21582    0.58403    0.74166   1.00
H1       0.30565    0.47294    0.72073   1.00
H1       0.31103    0.52750    0.76586   1.00
C5       0.31537    0.39410    0.71630   1.00
H1       0.31086    0.59933    0.76515   1.00
H1       0.19458    0.40056    0.77864   1.00
C5       0.17854    0.60535    0.73243   1.00
H1       0.18933    0.52747    0.73420   1.00
H1       0.19427    0.47230    0.77895   1.00
H2       0.15668    0.59837    0.75535   1.00
H2       0.18303    0.63747    0.73296   1.00
N1       0.16389    0.59395    0.69399   1.00
C6       0.15183    0.55810    0.68337   1.00
C6       0.15963    0.61757    0.66288   1.00
C6       0.13989    0.55873    0.64494   1.00
C6       0.14486    0.59656    0.63191   1.00
H3       0.15163    0.53281    0.70232   1.00
H3       0.16694    0.64831    0.66258   1.00
H3       0.12875    0.53436    0.62829   1.00
H3       0.13841    0.60758    0.60307   1.00
H2       0.31021    0.36228    0.71981   1.00
H2       0.31801    0.40001    0.68454   1.00
N1       0.35170    0.40523    0.73553   1.00
C6       0.37738    0.38078    0.75692   1.00
C6       0.36902    0.44285    0.73659   1.00
C6       0.40843    0.40277    0.77015   1.00
C6       0.40329    0.44091    0.75768   1.00
H3       0.37301    0.34992    0.76199   1.00
H3       0.35683    0.46876    0.72325   1.00
H3       0.43259    0.39205    0.78737   1.00
H3       0.42273    0.46505    0.76354   1.00
C4       0.02085    0.24962    0.75004   1.00
C4       -0.02085   0.25038    0.74996   1.00
C3       0.04249    0.23365    0.71868   1.00
C3       -0.04252   0.25875    0.71584   1.00
C3       0.04262    0.26566    0.78127   1.00
C3       -0.04259   0.24189    0.78404   1.00
C2       0.10518    0.24998    0.74984   1.00
C2       -0.10518   0.24998    0.74984   1.00
C3a      0.08401    0.23374    0.71845   1.00
C3       -0.08382   0.25855    0.71586   1.00
C3       0.08389    0.26581    0.78110   1.00
C3a      -0.08403   0.24166    0.78418   1.00
H1       0.02706    0.22073    0.69435   1.00
H1       -0.02750   0.26586    0.68897   1.00
C5       0.10590    0.21630    0.68463   1.00
H1       -0.09933   0.26515    0.68914   1.00
H1       0.09944    0.27864    0.80542   1.00
C5       -0.10535   0.23243    0.82146   1.00
H1       -0.02747   0.23420    0.81067   1.00
H1       0.02770    0.27895    0.80573   1.00
H2       -0.09837   0.25535    0.84332   1.00
H2       -0.13747   0.23296    0.81697   1.00
N1       -0.09395   0.19399    0.83611   1.00
C6       -0.05810   0.18337    0.84817   1.00
C6       -0.11757   0.16288    0.84037   1.00
C6       -0.05873   0.14494    0.86011   1.00
C6       -0.09656   0.13191    0.85514   1.00
H3       -0.03281   0.20232    0.84837   1.00
H3       -0.14831   0.16258    0.83306   1.00
H3       -0.03436   0.12829    0.87125   1.00
H3       -0.10758   0.10307    0.86159   1.00
H2       0.13772    0.21981    0.68979   1.00
H2       0.09999    0.18454    0.68199   1.00
N1       0.09477    0.23553    0.64830   1.00
C6       0.11922    0.25692    0.62262   1.00
C6       0.05715    0.23659    0.63098   1.00
C6       0.09723    0.27015    0.59157   1.00
C6       0.05909    0.25768    0.59671   1.00
H3       0.15008    0.26199    0.62699   1.00
H3       0.03124    0.22325    0.64317   1.00
H3       0.10795    0.28737    0.56741   1.00
H3       0.03495    0.26354    0.57727   1.00
C4       0.47915    0.24962    0.74996   1.00
C4       0.52085    0.25038    0.75004   1.00
C3       0.45751    0.23365    0.78132   1.00
C3       0.54252    0.25875    0.78416   1.00
C3       0.45738    0.26566    0.71873   1.00
C3       0.54259    0.24189    0.71596   1.00
C2       0.39482    0.24998    0.75016   1.00
C2       0.60518    0.24998    0.75016   1.00
C3a      0.41599    0.23374    0.78155   1.00
C3       0.58382    0.25855    0.78414   1.00
C3       0.41611    0.26581    0.71890   1.00
C3a      0.58403    0.24166    0.71582   1.00
H1       0.47294    0.22073    0.80565   1.00
H1       0.52750    0.26586    0.81103   1.00
C5       0.39410    0.21630    0.81537   1.00
H1       0.59933    0.26515    0.81086   1.00
H1       0.40056    0.27864    0.69458   1.00
C5       0.60535    0.23243    0.67854   1.00
H1       0.52747    0.23420    0.68933   1.00
H1       0.47230    0.27895    0.69427   1.00
H2       0.59837    0.25535    0.65668   1.00
H2       0.63747    0.23296    0.68303   1.00
N1       0.59395    0.19399    0.66389   1.00
C6       0.55810    0.18337    0.65183   1.00
C6       0.61757    0.16288    0.65963   1.00
C6       0.55873    0.14494    0.63989   1.00
C6       0.59656    0.13191    0.64486   1.00
H3       0.53281    0.20232    0.65163   1.00
H3       0.64831    0.16258    0.66694   1.00
H3       0.53436    0.12829    0.62875   1.00
H3       0.60758    0.10307    0.63841   1.00
H2       0.36228    0.21981    0.81021   1.00
H2       0.40001    0.18454    0.81801   1.00
N1       0.40523    0.23553    0.85170   1.00
C6       0.38078    0.25692    0.87738   1.00
C6       0.44285    0.23659    0.86902   1.00
C6       0.40277    0.27015    0.90843   1.00
C6       0.44091    0.25768    0.90329   1.00
H3       0.34992    0.26199    0.87301   1.00
H3       0.46876    0.22325    0.85683   1.00
H3       0.39205    0.28737    0.93259   1.00
H3       0.46505    0.26354    0.92273   1.00
C4       0.25004    0.02085    0.74962   1.00
C4       0.24996    -0.02085   0.75038   1.00
C3       0.21868    0.04249    0.73365   1.00
C3       0.21584    -0.04252   0.75875   1.00
C3       0.28127    0.04262    0.76566   1.00
C3       0.28404    -0.04259   0.74189   1.00
C2       0.24984    0.10518    0.74998   1.00
C2       0.24984    -0.10518   0.74998   1.00
C3a      0.21845    0.08401    0.73374   1.00
C3       0.21586    -0.08382   0.75855   1.00
C3       0.28110    0.08389    0.76581   1.00
C3a      0.28418    -0.08403   0.74166   1.00
H1       0.19435    0.02706    0.72073   1.00
H1       0.18897    -0.02750   0.76586   1.00
C5       0.18463    0.10590    0.71630   1.00
H1       0.18914    -0.09933   0.76515   1.00
H1       0.30542    0.09944    0.77864   1.00
C5       0.32146    -0.10535   0.73243   1.00
H1       0.31067    -0.02747   0.73420   1.00
H1       0.30573    0.02770    0.77895   1.00
H2       0.34332    -0.09837   0.75535   1.00
H2       0.31697    -0.13747   0.73296   1.00
N1       0.33611    -0.09395   0.69399   1.00
C6       0.34817    -0.05810   0.68337   1.00
C6       0.34037    -0.11757   0.66288   1.00
C6       0.36011    -0.05873   0.64494   1.00
C6       0.35514    -0.09656   0.63191   1.00
H3       0.34837    -0.03281   0.70232   1.00
H3       0.33306    -0.14831   0.66258   1.00
H3       0.37125    -0.03436   0.62829   1.00
H3       0.36159    -0.10758   0.60307   1.00
H2       0.18979    0.13772    0.71981   1.00
H2       0.18199    0.09999    0.68454   1.00
N1       0.14830    0.09477    0.73553   1.00
C6       0.12262    0.11922    0.75692   1.00
C6       0.13098    0.05715    0.73659   1.00
C6       0.09157    0.09723    0.77015   1.00
C6       0.09671    0.05909    0.75768   1.00
H3       0.12699    0.15008    0.76199   1.00
H3       0.14317    0.03124    0.72325   1.00
H3       0.06741    0.10795    0.78737   1.00
H3       0.07727    0.03495    0.76354   1.00
C4       0.24962    0.25004    0.52085   1.00
C4       0.25038    0.24996    0.47915   1.00
C3       0.23365    0.21868    0.54249   1.00
C3       0.25875    0.21584    0.45748   1.00
C3       0.26566    0.28127    0.54262   1.00
C3       0.24189    0.28404    0.45741   1.00
C2       0.24998    0.24984    0.60518   1.00
C2       0.24998    0.24984    0.39482   1.00
C3a      0.23374    0.21845    0.58401   1.00
C3       0.25855    0.21586    0.41618   1.00
C3       0.26581    0.28110    0.58389   1.00
C3a      0.24166    0.28418    0.41597   1.00
H1       0.22073    0.19435    0.52706   1.00
H1       0.26586    0.18897    0.47250   1.00
C5       0.21630    0.18463    0.60590   1.00
H1       0.26515    0.18914    0.40067   1.00
H1       0.27864    0.30542    0.59944   1.00
C5       0.23243    0.32146    0.39465   1.00
H1       0.23420    0.31067    0.47253   1.00
H1       0.27895    0.30573    0.52770   1.00
H2       0.25535    0.34332    0.40163   1.00
H2       0.23296    0.31697    0.36253   1.00
N1       0.19399    0.33611    0.40605   1.00
C6       0.18337    0.34817    0.44190   1.00
C6       0.16288    0.34037    0.38243   1.00
C6       0.14494    0.36011    0.44127   1.00
C6       0.13191    0.35514    0.40344   1.00
H3       0.20232    0.34837    0.46719   1.00
H3       0.16258    0.33306    0.35169   1.00
H3       0.12829    0.37125    0.46564   1.00
H3       0.10307    0.36159    0.39242   1.00
H2       0.21981    0.18979    0.63772   1.00
H2       0.18454    0.18199    0.59999   1.00
N1       0.23553    0.14830    0.59477   1.00
C6       0.25692    0.12262    0.61922   1.00
C6       0.23659    0.13098    0.55715   1.00
C6       0.27015    0.09157    0.59723   1.00
C6       0.25768    0.09671    0.55909   1.00
H3       0.26199    0.12699    0.65008   1.00
H3       0.22325    0.14317    0.53124   1.00
H3       0.28737    0.06741    0.60795   1.00
H3       0.26354    0.07727    0.53495   1.00
C4       0.24962    0.74996    0.47915   1.00
C4       0.25038    0.75004    0.52085   1.00
C3       0.23365    0.78132    0.45751   1.00
C3       0.25875    0.78416    0.54252   1.00
C3       0.26566    0.71873    0.45738   1.00
C3       0.24189    0.71596    0.54259   1.00
C2       0.24998    0.75016    0.39482   1.00
C2       0.24998    0.75016    0.60518   1.00
C3a      0.23374    0.78155    0.41599   1.00
C3       0.25855    0.78414    0.58382   1.00
C3       0.26581    0.71890    0.41611   1.00
C3a      0.24166    0.71582    0.58403   1.00
H1       0.22073    0.80565    0.47294   1.00
H1       0.26586    0.81103    0.52750   1.00
C5       0.21630    0.81537    0.39410   1.00
H1       0.26515    0.81086    0.59933   1.00
H1       0.27864    0.69458    0.40056   1.00
C5       0.23243    0.67854    0.60535   1.00
H1       0.23420    0.68933    0.52747   1.00
H1       0.27895    0.69427    0.47230   1.00
H2       0.25535    0.65668    0.59837   1.00
H2       0.23296    0.68303    0.63747   1.00
N1       0.19399    0.66389    0.59395   1.00
C6       0.18337    0.65183    0.55810   1.00
C6       0.16288    0.65963    0.61757   1.00
C6       0.14494    0.63989    0.55873   1.00
C6       0.13191    0.64486    0.59656   1.00
H3       0.20232    0.65163    0.53281   1.00
H3       0.16258    0.66694    0.64831   1.00
H3       0.12829    0.62875    0.53436   1.00
H3       0.10307    0.63841    0.60758   1.00
H2       0.21981    0.81021    0.36228   1.00
H2       0.18454    0.81801    0.40001   1.00
N1       0.23553    0.85170    0.40523   1.00
C6       0.25692    0.87738    0.38078   1.00
C6       0.23659    0.86902    0.44285   1.00
C6       0.27015    0.90843    0.40277   1.00
C6       0.25768    0.90329    0.44091   1.00
H3       0.26199    0.87301    0.34992   1.00
H3       0.22325    0.85683    0.46876   1.00
H3       0.28737    0.93259    0.39205   1.00
H3       0.26354    0.92273    0.46505   1.00
C4       0.24996    0.97915    0.24962   1.00
C4       0.25004    1.02085    0.25038   1.00
C3       0.28132    0.95751    0.23365   1.00
C3       0.28416    1.04252    0.25875   1.00
C3       0.21873    0.95738    0.26566   1.00
C3       0.21596    1.04259    0.24189   1.00
C2       0.25016    0.89482    0.24998   1.00
C2       0.25016    1.10518    0.24998   1.00
C3a      0.28155    0.91599    0.23374   1.00
C3       0.28414    1.08382    0.25855   1.00
C3       0.21890    0.91611    0.26581   1.00
C3a      0.21582    1.08403    0.24166   1.00
H1       0.30565    0.97294    0.22073   1.00
H1       0.31103    1.02750    0.26586   1.00
C5       0.31537    0.89410    0.21630   1.00
H1       0.31086    1.09933    0.26515   1.00
H1       0.19458    0.90056    0.27864   1.00
C5       0.17854    1.10535    0.23243   1.00
H1       0.18933    1.02747    0.23420   1.00
H1       0.19427    0.97230    0.27895   1.00
H2       0.15668    1.09837    0.25535   1.00
H2       0.18303    1.13747    0.23296   1.00
N1       0.16389    1.09395    0.19399   1.00
C6       0.15183    1.05810    0.18337   1.00
C6       0.15963    1.11757    0.16288   1.00
C6       0.13989    1.05873    0.14494   1.00
C6       0.14486    1.09656    0.13191   1.00
H3       0.15163    1.03281    0.20232   1.00
H3       0.16694    1.14831    0.16258   1.00
H3       0.12875    1.03436    0.12829   1.00
H3       0.13841    1.10758    0.10307   1.00
H2       0.31021    0.86228    0.21981   1.00
H2       0.31801    0.90001    0.18454   1.00
N1       0.35170    0.90523    0.23553   1.00
C6       0.37738    0.88078    0.25692   1.00
C6       0.36902    0.94285    0.23659   1.00
C6       0.40843    0.90277    0.27015   1.00
C6       0.40329    0.94091    0.25768   1.00
H3       0.37301    0.84992    0.26199   1.00
H3       0.35683    0.96876    0.22325   1.00
H3       0.43259    0.89205    0.28737   1.00
H3       0.42273    0.96505    0.26354   1.00
C4       0.02085    0.74962    0.25004   1.00
C4       -0.02085   0.75038    0.24996   1.00
C3       0.04249    0.73365    0.21868   1.00
C3       -0.04252   0.75875    0.21584   1.00
C3       0.04262    0.76566    0.28127   1.00
C3       -0.04259   0.74189    0.28404   1.00
C2       0.10518    0.74998    0.24984   1.00
C2       -0.10518   0.74998    0.24984   1.00
C3a      0.08401    0.73374    0.21845   1.00
C3       -0.08382   0.75855    0.21586   1.00
C3       0.08389    0.76581    0.28110   1.00
C3a      -0.08403   0.74166    0.28418   1.00
H1       0.02706    0.72073    0.19435   1.00
H1       -0.02750   0.76586    0.18897   1.00
C5       0.10590    0.71630    0.18463   1.00
H1       -0.09933   0.76515    0.18914   1.00
H1       0.09944    0.77864    0.30542   1.00
C5       -0.10535   0.73243    0.32146   1.00
H1       -0.02747   0.73420    0.31067   1.00
H1       0.02770    0.77895    0.30573   1.00
H2       -0.09837   0.75535    0.34332   1.00
H2       -0.13747   0.73296    0.31697   1.00
N1       -0.09395   0.69399    0.33611   1.00
C6       -0.05810   0.68337    0.34817   1.00
C6       -0.11757   0.66288    0.34037   1.00
C6       -0.05873   0.64494    0.36011   1.00
C6       -0.09656   0.63191    0.35514   1.00
H3       -0.03281   0.70232    0.34837   1.00
H3       -0.14831   0.66258    0.33306   1.00
H3       -0.03436   0.62829    0.37125   1.00
H3       -0.10758   0.60307    0.36159   1.00
H2       0.13772    0.71981    0.18979   1.00
H2       0.09999    0.68454    0.18199   1.00
N1       0.09477    0.73553    0.14830   1.00
C6       0.11922    0.75692    0.12262   1.00
C6       0.05715    0.73659    0.13098   1.00
C6       0.09723    0.77015    0.09157   1.00
C6       0.05909    0.75768    0.09671   1.00
H3       0.15008    0.76199    0.12699   1.00
H3       0.03124    0.72325    0.14317   1.00
H3       0.10795    0.78737    0.06741   1.00
H3       0.03495    0.76354    0.07727   1.00
C4       0.47915    0.74962    0.24996   1.00
C4       0.52085    0.75038    0.25004   1.00
C3       0.45751    0.73365    0.28132   1.00
C3       0.54252    0.75875    0.28416   1.00
C3       0.45738    0.76566    0.21873   1.00
C3       0.54259    0.74189    0.21596   1.00
C2       0.39482    0.74998    0.25016   1.00
C2       0.60518    0.74998    0.25016   1.00
C3a      0.41599    0.73374    0.28155   1.00
C3       0.58382    0.75855    0.28414   1.00
C3       0.41611    0.76581    0.21890   1.00
C3a      0.58403    0.74166    0.21582   1.00
H1       0.47294    0.72073    0.30565   1.00
H1       0.52750    0.76586    0.31103   1.00
C5       0.39410    0.71630    0.31537   1.00
H1       0.59933    0.76515    0.31086   1.00
H1       0.40056    0.77864    0.19458   1.00
C5       0.60535    0.73243    0.17854   1.00
H1       0.52747    0.73420    0.18933   1.00
H1       0.47230    0.77895    0.19427   1.00
H2       0.59837    0.75535    0.15668   1.00
H2       0.63747    0.73296    0.18303   1.00
N1       0.59395    0.69399    0.16389   1.00
C6       0.55810    0.68337    0.15183   1.00
C6       0.61757    0.66288    0.15963   1.00
C6       0.55873    0.64494    0.13989   1.00
C6       0.59656    0.63191    0.14486   1.00
H3       0.53281    0.70232    0.15163   1.00
H3       0.64831    0.66258    0.16694   1.00
H3       0.53436    0.62829    0.12875   1.00
H3       0.60758    0.60307    0.13841   1.00
H2       0.36228    0.71981    0.31021   1.00
H2       0.40001    0.68454    0.31801   1.00
N1       0.40523    0.73553    0.35170   1.00
C6       0.38078    0.75692    0.37738   1.00
C6       0.44285    0.73659    0.36902   1.00
C6       0.40277    0.77015    0.40843   1.00
C6       0.44091    0.75768    0.40329   1.00
H3       0.34992    0.76199    0.37301   1.00
H3       0.46876    0.72325    0.35683   1.00
H3       0.39205    0.78737    0.43259   1.00
H3       0.46505    0.76354    0.42273   1.00
C4       0.25004    0.52085    0.24962   1.00
C4       0.24996    0.47915    0.25038   1.00
C3       0.21868    0.54249    0.23365   1.00
C3       0.21584    0.45748    0.25875   1.00
C3       0.28127    0.54262    0.26566   1.00
C3       0.28404    0.45741    0.24189   1.00
C2       0.24984    0.60518    0.24998   1.00
C2       0.24984    0.39482    0.24998   1.00
C3a      0.21845    0.58401    0.23374   1.00
C3       0.21586    0.41618    0.25855   1.00
C3       0.28110    0.58389    0.26581   1.00
C3a      0.28418    0.41597    0.24166   1.00
H1       0.19435    0.52706    0.22073   1.00
H1       0.18897    0.47250    0.26586   1.00
C5       0.18463    0.60590    0.21630   1.00
H1       0.18914    0.40067    0.26515   1.00
H1       0.30542    0.59944    0.27864   1.00
C5       0.32146    0.39465    0.23243   1.00
H1       0.31067    0.47253    0.23420   1.00
H1       0.30573    0.52770    0.27895   1.00
H2       0.34332    0.40163    0.25535   1.00
H2       0.31697    0.36253    0.23296   1.00
N1       0.33611    0.40605    0.19399   1.00
C6       0.34817    0.44190    0.18337   1.00
C6       0.34037    0.38243    0.16288   1.00
C6       0.36011    0.44127    0.14494   1.00
C6       0.35514    0.40344    0.13191   1.00
H3       0.34837    0.46719    0.20232   1.00
H3       0.33306    0.35169    0.16258   1.00
H3       0.37125    0.46564    0.12829   1.00
H3       0.36159    0.39242    0.10307   1.00
H2       0.18979    0.63772    0.21981   1.00
H2       0.18199    0.59999    0.18454   1.00
N1       0.14830    0.59477    0.23553   1.00
C6       0.12262    0.61922    0.25692   1.00
C6       0.13098    0.55715    0.23659   1.00
C6       0.09157    0.59723    0.27015   1.00
C6       0.09671    0.55909    0.25768   1.00
H3       0.12699    0.65008    0.26199   1.00
H3       0.14317    0.53124    0.22325   1.00
H3       0.06741    0.60795    0.28737   1.00
H3       0.07727    0.53495    0.26354   1.00
C4       0.24962    0.75004    0.02085   1.00
C4       0.25038    0.74996    -0.02085   1.00
C3       0.23365    0.71868    0.04249   1.00
C3       0.25875    0.71584    -0.04252   1.00
C3       0.26566    0.78127    0.04262   1.00
C3       0.24189    0.78404    -0.04259   1.00
C2       0.24998    0.74984    0.10518   1.00
C2       0.24998    0.74984    -0.10518   1.00
C3a      0.23374    0.71845    0.08401   1.00
C3       0.25855    0.71586    -0.08382   1.00
C3       0.26581    0.78110    0.08389   1.00
C3a      0.24166    0.78418    -0.08403   1.00
H1       0.22073    0.69435    0.02706   1.00
H1       0.26586    0.68897    -0.02750   1.00
C5       0.21630    0.68463    0.10590   1.00
H1       0.26515    0.68914    -0.09933   1.00
H1       0.27864    0.80542    0.09944   1.00
C5       0.23243    0.82146    -0.10535   1.00
H1       0.23420    0.81067    -0.02747   1.00
H1       0.27895    0.80573    0.02770   1.00
H2       0.25535    0.84332    -0.09837   1.00
H2       0.23296    0.81697    -0.13747   1.00
N1       0.19399    0.83611    -0.09395   1.00
C6       0.18337    0.84817    -0.05810   1.00
C6       0.16288    0.84037    -0.11757   1.00
C6       0.14494    0.86011    -0.05873   1.00
C6       0.13191    0.85514    -0.09656   1.00
H3       0.20232    0.84837    -0.03281   1.00
H3       0.16258    0.83306    -0.14831   1.00
H3       0.12829    0.87125    -0.03436   1.00
H3       0.10307    0.86159    -0.10758   1.00
H2       0.21981    0.68979    0.13772   1.00
H2       0.18454    0.68199    0.09999   1.00
N1       0.23553    0.64830    0.09477   1.00
C6       0.25692    0.62262    0.11922   1.00
C6       0.23659    0.63098    0.05715   1.00
C6       0.27015    0.59157    0.09723   1.00
C6       0.25768    0.59671    0.05909   1.00
H3       0.26199    0.62699    0.15008   1.00
H3       0.22325    0.64317    0.03124   1.00
H3       0.28737    0.56741    0.10795   1.00
H3       0.26354    0.57727    0.03495   1.00
C4       0.74962    0.24996    0.47915   1.00
C4       0.75038    0.25004    0.52085   1.00
C3       0.73365    0.28132    0.45751   1.00
C3       0.75875    0.28416    0.54252   1.00
C3       0.76566    0.21873    0.45738   1.00
C3       0.74189    0.21596    0.54259   1.00
C2       0.74998    0.25016    0.39482   1.00
C2       0.74998    0.25016    0.60518   1.00
C3a      0.73374    0.28155    0.41599   1.00
C3       0.75855    0.28414    0.58382   1.00
C3       0.76581    0.21890    0.41611   1.00
C3a      0.74166    0.21582    0.58403   1.00
H1       0.72073    0.30565    0.47294   1.00
H1       0.76586    0.31103    0.52750   1.00
C5       0.71630    0.31537    0.39410   1.00
H1       0.76515    0.31086    0.59933   1.00
H1       0.77864    0.19458    0.40056   1.00
C5       0.73243    0.17854    0.60535   1.00
H1       0.73420    0.18933    0.52747   1.00
H1       0.77895    0.19427    0.47230   1.00
H2       0.75535    0.15668    0.59837   1.00
H2       0.73296    0.18303    0.63747   1.00
N1       0.69399    0.16389    0.59395   1.00
C6       0.68337    0.15183    0.55810   1.00
C6       0.66288    0.15963    0.61757   1.00
C6       0.64494    0.13989    0.55873   1.00
C6       0.63191    0.14486    0.59656   1.00
H3       0.70232    0.15163    0.53281   1.00
H3       0.66258    0.16694    0.64831   1.00
H3       0.62829    0.12875    0.53436   1.00
H3       0.60307    0.13841    0.60758   1.00
H2       0.71981    0.31021    0.36228   1.00
H2       0.68454    0.31801    0.40001   1.00
N1       0.73553    0.35170    0.40523   1.00
C6       0.75692    0.37738    0.38078   1.00
C6       0.73659    0.36902    0.44285   1.00
C6       0.77015    0.40843    0.40277   1.00
C6       0.75768    0.40329    0.44091   1.00
H3       0.76199    0.37301    0.34992   1.00
H3       0.72325    0.35683    0.46876   1.00
H3       0.78737    0.43259    0.39205   1.00
H3       0.76354    0.42273    0.46505   1.00
C4       0.74996    0.47915    0.24962   1.00
C4       0.75004    0.52085    0.25038   1.00
C3       0.78132    0.45751    0.23365   1.00
C3       0.78416    0.54252    0.25875   1.00
C3       0.71873    0.45738    0.26566   1.00
C3       0.71596    0.54259    0.24189   1.00
C2       0.75016    0.39482    0.24998   1.00
C2       0.75016    0.60518    0.24998   1.00
C3a      0.78155    0.41599    0.23374   1.00
C3       0.78414    0.58382    0.25855   1.00
C3       0.71890    0.41611    0.26581   1.00
C3a      0.71582    0.58403    0.24166   1.00
H1       0.80565    0.47294    0.22073   1.00
H1       0.81103    0.52750    0.26586   1.00
C5       0.81537    0.39410    0.21630   1.00
H1       0.81086    0.59933    0.26515   1.00
H1       0.69458    0.40056    0.27864   1.00
C5       0.67854    0.60535    0.23243   1.00
H1       0.68933    0.52747    0.23420   1.00
H1       0.69427    0.47230    0.27895   1.00
H2       0.65668    0.59837    0.25535   1.00
H2       0.68303    0.63747    0.23296   1.00
N1       0.66389    0.59395    0.19399   1.00
C6       0.65183    0.55810    0.18337   1.00
C6       0.65963    0.61757    0.16288   1.00
C6       0.63989    0.55873    0.14494   1.00
C6       0.64486    0.59656    0.13191   1.00
H3       0.65163    0.53281    0.20232   1.00
H3       0.66694    0.64831    0.16258   1.00
H3       0.62875    0.53436    0.12829   1.00
H3       0.63841    0.60758    0.10307   1.00
H2       0.81021    0.36228    0.21981   1.00
H2       0.81801    0.40001    0.18454   1.00
N1       0.85170    0.40523    0.23553   1.00
C6       0.87738    0.38078    0.25692   1.00
C6       0.86902    0.44285    0.23659   1.00
C6       0.90843    0.40277    0.27015   1.00
C6       0.90329    0.44091    0.25768   1.00
H3       0.87301    0.34992    0.26199   1.00
H3       0.85683    0.46876    0.22325   1.00
H3       0.93259    0.39205    0.28737   1.00
H3       0.92273    0.46505    0.26354   1.00
C4       0.52085    0.24962    0.25004   1.00
C4       0.47915    0.25038    0.24996   1.00
C3       0.54249    0.23365    0.21868   1.00
C3       0.45748    0.25875    0.21584   1.00
C3       0.54262    0.26566    0.28127   1.00
C3       0.45741    0.24189    0.28404   1.00
C2       0.60518    0.24998    0.24984   1.00
C2       0.39482    0.24998    0.24984   1.00
C3a      0.58401    0.23374    0.21845   1.00
C3       0.41618    0.25855    0.21586   1.00
C3       0.58389    0.26581    0.28110   1.00
C3a      0.41597    0.24166    0.28418   1.00
H1       0.52706    0.22073    0.19435   1.00
H1       0.47250    0.26586    0.18897   1.00
C5       0.60590    0.21630    0.18463   1.00
H1       0.40067    0.26515    0.18914   1.00
H1       0.59944    0.27864    0.30542   1.00
C5       0.39465    0.23243    0.32146   1.00
H1       0.47253    0.23420    0.31067   1.00
H1       0.52770    0.27895    0.30573   1.00
H2       0.40163    0.25535    0.34332   1.00
H2       0.36253    0.23296    0.31697   1.00
N1       0.40605    0.19399    0.33611   1.00
C6       0.44190    0.18337    0.34817   1.00
C6       0.38243    0.16288    0.34037   1.00
C6       0.44127    0.14494    0.36011   1.00
C6       0.40344    0.13191    0.35514   1.00
H3       0.46719    0.20232    0.34837   1.00
H3       0.35169    0.16258    0.33306   1.00
H3       0.46564    0.12829    0.37125   1.00
H3       0.39242    0.10307    0.36159   1.00
H2       0.63772    0.21981    0.18979   1.00
H2       0.59999    0.18454    0.18199   1.00
N1       0.59477    0.23553    0.14830   1.00
C6       0.61922    0.25692    0.12262   1.00
C6       0.55715    0.23659    0.13098   1.00
C6       0.59723    0.27015    0.09157   1.00
C6       0.55909    0.25768    0.09671   1.00
H3       0.65008    0.26199    0.12699   1.00
H3       0.53124    0.22325    0.14317   1.00
H3       0.60795    0.28737    0.06741   1.00
H3       0.53495    0.26354    0.07727   1.00
C4       0.97915    0.24962    0.24996   1.00
C4       1.02085    0.25038    0.25004   1.00
C3       0.95751    0.23365    0.28132   1.00
C3       1.04252    0.25875    0.28416   1.00
C3       0.95738    0.26566    0.21873   1.00
C3       1.04259    0.24189    0.21596   1.00
C2       0.89482    0.24998    0.25016   1.00
C2       1.10518    0.24998    0.25016   1.00
C3a      0.91599    0.23374    0.28155   1.00
C3       1.08382    0.25855    0.28414   1.00
C3       0.91611    0.26581    0.21890   1.00
C3a      1.08403    0.24166    0.21582   1.00
H1       0.97294    0.22073    0.30565   1.00
H1       1.02750    0.26586    0.31103   1.00
C5       0.89410    0.21630    0.31537   1.00
H1       1.09933    0.26515    0.31086   1.00
H1       0.90056    0.27864    0.19458   1.00
C5       1.10535    0.23243    0.17854   1.00
H1       1.02747    0.23420    0.18933   1.00
H1       0.97230    0.27895    0.19427   1.00
H2       1.09837    0.25535    0.15668   1.00
H2       1.13747    0.23296    0.18303   1.00
N1       1.09395    0.19399    0.16389   1.00
C6       1.05810    0.18337    0.15183   1.00
C6       1.11757    0.16288    0.15963   1.00
C6       1.05873    0.14494    0.13989   1.00
C6       1.09656    0.13191    0.14486   1.00
H3       1.03281    0.20232    0.15163   1.00
H3       1.14831    0.16258    0.16694   1.00
H3       1.03436    0.12829    0.12875   1.00
H3       1.10758    0.10307    0.13841   1.00
H2       0.86228    0.21981    0.31021   1.00
H2       0.90001    0.18454    0.31801   1.00
N1       0.90523    0.23553    0.35170   1.00
C6       0.88078    0.25692    0.37738   1.00
C6       0.94285    0.23659    0.36902   1.00
C6       0.90277    0.27015    0.40843   1.00
C6       0.94091    0.25768    0.40329   1.00
H3       0.84992    0.26199    0.37301   1.00
H3       0.96876    0.22325    0.35683   1.00
H3       0.89205    0.28737    0.43259   1.00
H3       0.96505    0.26354    0.42273   1.00
C4       0.75004    0.02085    0.24962   1.00
C4       0.74996    -0.02085   0.25038   1.00
C3       0.71868    0.04249    0.23365   1.00
C3       0.71584    -0.04252   0.25875   1.00
C3       0.78127    0.04262    0.26566   1.00
C3       0.78404    -0.04259   0.24189   1.00
C2       0.74984    0.10518    0.24998   1.00
C2       0.74984    -0.10518   0.24998   1.00
C3a      0.71845    0.08401    0.23374   1.00
C3       0.71586    -0.08382   0.25855   1.00
C3       0.78110    0.08389    0.26581   1.00
C3a      0.78418    -0.08403   0.24166   1.00
H1       0.69435    0.02706    0.22073   1.00
H1       0.68897    -0.02750   0.26586   1.00
C5       0.68463    0.10590    0.21630   1.00
H1       0.68914    -0.09933   0.26515   1.00
H1       0.80542    0.09944    0.27864   1.00
C5       0.82146    -0.10535   0.23243   1.00
H1       0.81067    -0.02747   0.23420   1.00
H1       0.80573    0.02770    0.27895   1.00
H2       0.84332    -0.09837   0.25535   1.00
H2       0.81697    -0.13747   0.23296   1.00
N1       0.83611    -0.09395   0.19399   1.00
C6       0.84817    -0.05810   0.18337   1.00
C6       0.84037    -0.11757   0.16288   1.00
C6       0.86011    -0.05873   0.14494   1.00
C6       0.85514    -0.09656   0.13191   1.00
H3       0.84837    -0.03281   0.20232   1.00
H3       0.83306    -0.14831   0.16258   1.00
H3       0.87125    -0.03436   0.12829   1.00
H3       0.86159    -0.10758   0.10307   1.00
H2       0.68979    0.13772    0.21981   1.00
H2       0.68199    0.09999    0.18454   1.00
N1       0.64830    0.09477    0.23553   1.00
C6       0.62262    0.11922    0.25692   1.00
C6       0.63098    0.05715    0.23659   1.00
C6       0.59157    0.09723    0.27015   1.00
C6       0.59671    0.05909    0.25768   1.00
H3       0.62699    0.15008    0.26199   1.00
H3       0.64317    0.03124    0.22325   1.00
H3       0.56741    0.10795    0.28737   1.00
H3       0.57727    0.03495    0.26354   1.00
C4       0.74962    0.25004    0.02085   1.00
C4       0.75038    0.24996    -0.02085   1.00
C3       0.73365    0.21868    0.04249   1.00
C3       0.75875    0.21584    -0.04252   1.00
C3       0.76566    0.28127    0.04262   1.00
C3       0.74189    0.28404    -0.04259   1.00
C2       0.74998    0.24984    0.10518   1.00
C2       0.74998    0.24984    -0.10518   1.00
C3a      0.73374    0.21845    0.08401   1.00
C3       0.75855    0.21586    -0.08382   1.00
C3       0.76581    0.28110    0.08389   1.00
C3a      0.74166    0.28418    -0.08403   1.00
H1       0.72073    0.19435    0.02706   1.00
H1       0.76586    0.18897    -0.02750   1.00
C5       0.71630    0.18463    0.10590   1.00
H1       0.76515    0.18914    -0.09933   1.00
H1       0.77864    0.30542    0.09944   1.00
C5       0.73243    0.32146    -0.10535   1.00
H1       0.73420    0.31067    -0.02747   1.00
H1       0.77895    0.30573    0.02770   1.00
H2       0.75535    0.34332    -0.09837   1.00
H2       0.73296    0.31697    -0.13747   1.00
N1       0.69399    0.33611    -0.09395   1.00
C6       0.68337    0.34817    -0.05810   1.00
C6       0.66288    0.34037    -0.11757   1.00
C6       0.64494    0.36011    -0.05873   1.00
C6       0.63191    0.35514    -0.09656   1.00
H3       0.70232    0.34837    -0.03281   1.00
H3       0.66258    0.33306    -0.14831   1.00
H3       0.62829    0.37125    -0.03436   1.00
H3       0.60307    0.36159    -0.10758   1.00
H2       0.71981    0.18979    0.13772   1.00
H2       0.68454    0.18199    0.09999   1.00
N1       0.73553    0.14830    0.09477   1.00
C6       0.75692    0.12262    0.11922   1.00
C6       0.73659    0.13098    0.05715   1.00
C6       0.77015    0.09157    0.09723   1.00
C6       0.75768    0.09671    0.05909   1.00
H3       0.76199    0.12699    0.15008   1.00
H3       0.72325    0.14317    0.03124   1.00
H3       0.78737    0.06741    0.10795   1.00
H3       0.76354    0.07727    0.03495   1.00
C4       0.91462    0.91496    1.14415   1.00
C4       0.91538    0.91504    1.18585   1.00
C3       0.89865    0.94632    1.12251   1.00
C3       0.92375    0.94916    1.20752   1.00
C3       0.93066    0.88373    1.12238   1.00
C3       0.90689    0.88096    1.20759   1.00
C2       0.91498    0.91516    1.05982   1.00
C2       0.91498    0.91516    1.27018   1.00
C3a      0.89874    0.94655    1.08099   1.00
C3       0.92355    0.94914    1.24882   1.00
C3       0.93081    0.88390    1.08111   1.00
C3a      0.90666    0.88082    1.24903   1.00
H1       0.88573    0.97065    1.13794   1.00
H1       0.93086    0.97603    1.19250   1.00
C5       0.88130    0.98037    1.05910   1.00
H1       0.93015    0.97586    1.26433   1.00
H1       0.94364    0.85958    1.06556   1.00
C5       0.89743    0.84354    1.27035   1.00
H1       0.89920    0.85433    1.19247   1.00
H1       0.94395    0.85927    1.13730   1.00
H2       0.92035    0.82168    1.26337   1.00
H2       0.89796    0.84803    1.30247   1.00
N1       0.85899    0.82889    1.25895   1.00
C6       0.84837    0.81683    1.22310   1.00
C6       0.82788    0.82463    1.28257   1.00
C6       0.80994    0.80489    1.22373   1.00
C6       0.79691    0.80986    1.26156   1.00
H3       0.86732    0.81663    1.19781   1.00
H3       0.82758    0.83194    1.31331   1.00
H3       0.79329    0.79375    1.19936   1.00
H3       0.76807    0.80341    1.27258   1.00
H2       0.88481    0.97521    1.02728   1.00
H2       0.84954    0.98301    1.06501   1.00
N1       0.90053    1.01670    1.07023   1.00
C6       0.92192    1.04238    1.04578   1.00
C6       0.90159    1.03402    1.10785   1.00
C6       0.93515    1.07343    1.06777   1.00
C6       0.92268    1.06829    1.10591   1.00
H3       0.92699    1.03801    1.01492   1.00
H3       0.88825    1.02183    1.13376   1.00
H3       0.95237    1.09759    1.05705   1.00
H3       0.92854    1.08773    1.13005   1.00
C4       0.91496    1.14415    0.91462   1.00
C4       0.91504    1.18585    0.91538   1.00
C3       0.94632    1.12251    0.89865   1.00
C3       0.94916    1.20752    0.92375   1.00
C3       0.88373    1.12238    0.93066   1.00
C3       0.88096    1.20759    0.90689   1.00
C2       0.91516    1.05982    0.91498   1.00
C2       0.91516    1.27018    0.91498   1.00
C3a      0.94655    1.08099    0.89874   1.00
C3       0.94914    1.24882    0.92355   1.00
C3       0.88390    1.08111    0.93081   1.00
C3a      0.88082    1.24903    0.90666   1.00
H1       0.97065    1.13794    0.88573   1.00
H1       0.97603    1.19250    0.93086   1.00
C5       0.98037    1.05910    0.88130   1.00
H1       0.97586    1.26433    0.93015   1.00
H1       0.85958    1.06556    0.94364   1.00
C5       0.84354    1.27035    0.89743   1.00
H1       0.85433    1.19247    0.89920   1.00
H1       0.85927    1.13730    0.94395   1.00
H2       0.82168    1.26337    0.92035   1.00
H2       0.84803    1.30247    0.89796   1.00
N1       0.82889    1.25895    0.85899   1.00
C6       0.81683    1.22310    0.84837   1.00
C6       0.82463    1.28257    0.82788   1.00
C6       0.80489    1.22373    0.80994   1.00
C6       0.80986    1.26156    0.79691   1.00
H3       0.81663    1.19781    0.86732   1.00
H3       0.83194    1.31331    0.82758   1.00
H3       0.79375    1.19936    0.79329   1.00
H3       0.80341    1.27258    0.76807   1.00
H2       0.97521    1.02728    0.88481   1.00
H2       0.98301    1.06501    0.84954   1.00
N1       1.01670    1.07023    0.90053   1.00
C6       1.04238    1.04578    0.92192   1.00
C6       1.03402    1.10785    0.90159   1.00
C6       1.07343    1.06777    0.93515   1.00
C6       1.06829    1.10591    0.92268   1.00
H3       1.03801    1.01492    0.92699   1.00
H3       1.02183    1.13376    0.88825   1.00
H3       1.09759    1.05705    0.95237   1.00
H3       1.08773    1.13005    0.92854   1.00
C4       0.68585    0.91462    0.91504   1.00
C4       0.64415    0.91538    0.91496   1.00
C3       0.70749    0.89865    0.88368   1.00
C3       0.62248    0.92375    0.88084   1.00
C3       0.70762    0.93066    0.94627   1.00
C3       0.62241    0.90689    0.94904   1.00
C2       0.77018    0.91498    0.91484   1.00
C2       0.55982    0.91498    0.91484   1.00
C3a      0.74901    0.89874    0.88345   1.00
C3       0.58118    0.92355    0.88086   1.00
C3       0.74889    0.93081    0.94610   1.00
C3a      0.58097    0.90666    0.94918   1.00
H1       0.69206    0.88573    0.85935   1.00
H1       0.63750    0.93086    0.85397   1.00
C5       0.77090    0.88130    0.84963   1.00
H1       0.56567    0.93015    0.85414   1.00
H1       0.76444    0.94364    0.97042   1.00
C5       0.55965    0.89743    0.98646   1.00
H1       0.63753    0.89920    0.97567   1.00
H1       0.69270    0.94395    0.97073   1.00
H2       0.56663    0.92035    1.00832   1.00
H2       0.52753    0.89796    0.98197   1.00
N1       0.57105    0.85899    1.00111   1.00
C6       0.60690    0.84837    1.01317   1.00
C6       0.54743    0.82788    1.00537   1.00
C6       0.60627    0.80994    1.02511   1.00
C6       0.56844    0.79691    1.02014   1.00
H3       0.63219    0.86732    1.01337   1.00
H3       0.51669    0.82758    0.99806   1.00
H3       0.63064    0.79329    1.03625   1.00
H3       0.55742    0.76807    1.02659   1.00
H2       0.80272    0.88481    0.85479   1.00
H2       0.76499    0.84954    0.84699   1.00
N1       0.75977    0.90053    0.81330   1.00
C6       0.78422    0.92192    0.78762   1.00
C6       0.72215    0.90159    0.79598   1.00
C6       0.76223    0.93515    0.75657   1.00
C6       0.72409    0.92268    0.76171   1.00
H3       0.81508    0.92699    0.79199   1.00
H3       0.69624    0.88825    0.80817   1.00
H3       0.77295    0.95237    0.73241   1.00
H3       0.69995    0.92854    0.74227   1.00
C4       1.14415    0.91462    0.91496   1.00
C4       1.18585    0.91538    0.91504   1.00
C3       1.12251    0.89865    0.94632   1.00
C3       1.20752    0.92375    0.94916   1.00
C3       1.12238    0.93066    0.88373   1.00
C3       1.20759    0.90689    0.88096   1.00
C2       1.05982    0.91498    0.91516   1.00
C2       1.27018    0.91498    0.91516   1.00
C3a      1.08099    0.89874    0.94655   1.00
C3       1.24882    0.92355    0.94914   1.00
C3       1.08111    0.93081    0.88390   1.00
C3a      1.24903    0.90666    0.88082   1.00
H1       1.13794    0.88573    0.97065   1.00
H1       1.19250    0.93086    0.97603   1.00
C5       1.05910    0.88130    0.98037   1.00
H1       1.26433    0.93015    0.97586   1.00
H1       1.06556    0.94364    0.85958   1.00
C5       1.27035    0.89743    0.84354   1.00
H1       1.19247    0.89920    0.85433   1.00
H1       1.13730    0.94395    0.85927   1.00
H2       1.26337    0.92035    0.82168   1.00
H2       1.30247    0.89796    0.84803   1.00
N1       1.25895    0.85899    0.82889   1.00
C6       1.22310    0.84837    0.81683   1.00
C6       1.28257    0.82788    0.82463   1.00
C6       1.22373    0.80994    0.80489   1.00
C6       1.26156    0.79691    0.80986   1.00
H3       1.19781    0.86732    0.81663   1.00
H3       1.31331    0.82758    0.83194   1.00
H3       1.19936    0.79329    0.79375   1.00
H3       1.27258    0.76807    0.80341   1.00
H2       1.02728    0.88481    0.97521   1.00
H2       1.06501    0.84954    0.98301   1.00
N1       1.07023    0.90053    1.01670   1.00
C6       1.04578    0.92192    1.04238   1.00
C6       1.10785    0.90159    1.03402   1.00
C6       1.06777    0.93515    1.07343   1.00
C6       1.10591    0.92268    1.06829   1.00
H3       1.01492    0.92699    1.03801   1.00
H3       1.13376    0.88825    1.02183   1.00
H3       1.05705    0.95237    1.09759   1.00
H3       1.13005    0.92854    1.08773   1.00
C4       0.91504    0.68585    0.91462   1.00
C4       0.91496    0.64415    0.91538   1.00
C3       0.88368    0.70749    0.89865   1.00
C3       0.88084    0.62248    0.92375   1.00
C3       0.94627    0.70762    0.93066   1.00
C3       0.94904    0.62241    0.90689   1.00
C2       0.91484    0.77018    0.91498   1.00
C2       0.91484    0.55982    0.91498   1.00
C3a      0.88345    0.74901    0.89874   1.00
C3       0.88086    0.58118    0.92355   1.00
C3       0.94610    0.74889    0.93081   1.00
C3a      0.94918    0.58097    0.90666   1.00
H1       0.85935    0.69206    0.88573   1.00
H1       0.85397    0.63750    0.93086   1.00
C5       0.84963    0.77090    0.88130   1.00
H1       0.85414    0.56567    0.93015   1.00
H1       0.97042    0.76444    0.94364   1.00
C5       0.98646    0.55965    0.89743   1.00
H1       0.97567    0.63753    0.89920   1.00
H1       0.97073    0.69270    0.94395   1.00
H2       1.00832    0.56663    0.92035   1.00
H2       0.98197    0.52753    0.89796   1.00
N1       1.00111    0.57105    0.85899   1.00
C6       1.01317    0.60690    0.84837   1.00
C6       1.00537    0.54743    0.82788   1.00
C6       1.02511    0.60627    0.80994   1.00
C6       1.02014    0.56844    0.79691   1.00
H3       1.01337    0.63219    0.86732   1.00
H3       0.99806    0.51669    0.82758   1.00
H3       1.03625    0.63064    0.79329   1.00
H3       1.02659    0.55742    0.76807   1.00
H2       0.85479    0.80272    0.88481   1.00
H2       0.84699    0.76499    0.84954   1.00
N1       0.81330    0.75977    0.90053   1.00
C6       0.78762    0.78422    0.92192   1.00
C6       0.79598    0.72215    0.90159   1.00
C6       0.75657    0.76223    0.93515   1.00
C6       0.76171    0.72409    0.92268   1.00
H3       0.79199    0.81508    0.92699   1.00
H3       0.80817    0.69624    0.88825   1.00
H3       0.73241    0.77295    0.95237   1.00
H3       0.74227    0.69995    0.92854   1.00
C4       0.91462    0.91504    0.68585   1.00
C4       0.91538    0.91496    0.64415   1.00
C3       0.89865    0.88368    0.70749   1.00
C3       0.92375    0.88084    0.62248   1.00
C3       0.93066    0.94627    0.70762   1.00
C3       0.90689    0.94904    0.62241   1.00
C2       0.91498    0.91484    0.77018   1.00
C2       0.91498    0.91484    0.55982   1.00
C3a      0.89874    0.88345    0.74901   1.00
C3       0.92355    0.88086    0.58118   1.00
C3       0.93081    0.94610    0.74889   1.00
C3a      0.90666    0.94918    0.58097   1.00
H1       0.88573    0.85935    0.69206   1.00
H1       0.93086    0.85397    0.63750   1.00
C5       0.88130    0.84963    0.77090   1.00
H1       0.93015    0.85414    0.56567   1.00
H1       0.94364    0.97042    0.76444   1.00
C5       0.89743    0.98646    0.55965   1.00
H1       0.89920    0.97567    0.63753   1.00
H1       0.94395    0.97073    0.69270   1.00
H2       0.92035    1.00832    0.56663   1.00
H2       0.89796    0.98197    0.52753   1.00
N1       0.85899    1.00111    0.57105   1.00
C6       0.84837    1.01317    0.60690   1.00
C6       0.82788    1.00537    0.54743   1.00
C6       0.80994    1.02511    0.60627   1.00
C6       0.79691    1.02014    0.56844   1.00
H3       0.86732    1.01337    0.63219   1.00
H3       0.82758    0.99806    0.51669   1.00
H3       0.79329    1.03625    0.63064   1.00
H3       0.76807    1.02659    0.55742   1.00
H2       0.88481    0.85479    0.80272   1.00
H2       0.84954    0.84699    0.76499   1.00
N1       0.90053    0.81330    0.75977   1.00
C6       0.92192    0.78762    0.78422   1.00
C6       0.90159    0.79598    0.72215   1.00
C6       0.93515    0.75657    0.76223   1.00
C6       0.92268    0.76171    0.72409   1.00
H3       0.92699    0.79199    0.81508   1.00
H3       0.88825    0.80817    0.69624   1.00
H3       0.95237    0.73241    0.77295   1.00
H3       0.92854    0.74227    0.69995   1.00
C4       0.41462    0.41496    1.14415   1.00
C4       0.41538    0.41504    1.18585   1.00
C3       0.39865    0.44632    1.12251   1.00
C3       0.42375    0.44916    1.20752   1.00
C3       0.43066    0.38373    1.12238   1.00
C3       0.40689    0.38096    1.20759   1.00
C2       0.41498    0.41516    1.05982   1.00
C2       0.41498    0.41516    1.27018   1.00
C3a      0.39874    0.44655    1.08099   1.00
C3       0.42355    0.44914    1.24882   1.00
C3       0.43081    0.38390    1.08111   1.00
C3a      0.40666    0.38082    1.24903   1.00
H1       0.38573    0.47065    1.13794   1.00
H1       0.43086    0.47603    1.19250   1.00
C5       0.38130    0.48037    1.05910   1.00
H1       0.43015    0.47586    1.26433   1.00
H1       0.44364    0.35958    1.06556   1.00
C5       0.39743    0.34354    1.27035   1.00
H1       0.39920    0.35433    1.19247   1.00
H1       0.44395    0.35927    1.13730   1.00
H2       0.42035    0.32168    1.26337   1.00
H2       0.39796    0.34803    1.30247   1.00
N1       0.35899    0.32889    1.25895   1.00
C6       0.34837    0.31683    1.22310   1.00
C6       0.32788    0.32463    1.28257   1.00
C6       0.30994    0.30489    1.22373   1.00
C6       0.29691    0.30986    1.26156   1.00
H3       0.36732    0.31663    1.19781   1.00
H3       0.32758    0.33194    1.31331   1.00
H3       0.29329    0.29375    1.19936   1.00
H3       0.26807    0.30341    1.27258   1.00
H2       0.38481    0.47521    1.02728   1.00
H2       0.34954    0.48301    1.06501   1.00
N1       0.40053    0.51670    1.07023   1.00
C6       0.42192    0.54238    1.04578   1.00
C6       0.40159    0.53402    1.10785   1.00
C6       0.43515    0.57343    1.06777   1.00
C6       0.42268    0.56829    1.10591   1.00
H3       0.42699    0.53801    1.01492   1.00
H3       0.38825    0.52183    1.13376   1.00
H3       0.45237    0.59759    1.05705   1.00
H3       0.42854    0.58773    1.13005   1.00
C4       0.41496    0.64415    0.91462   1.00
C4       0.41504    0.68585    0.91538   1.00
C3       0.44632    0.62251    0.89865   1.00
C3       0.44916    0.70752    0.92375   1.00
C3       0.38373    0.62238    0.93066   1.00
C3       0.38096    0.70759    0.90689   1.00
C2       0.41516    0.55982    0.91498   1.00
C2       0.41516    0.77018    0.91498   1.00
C3a      0.44655    0.58099    0.89874   1.00
C3       0.44914    0.74882    0.92355   1.00
C3       0.38390    0.58111    0.93081   1.00
C3a      0.38082    0.74903    0.90666   1.00
H1       0.47065    0.63794    0.88573   1.00
H1       0.47603    0.69250    0.93086   1.00
C5       0.48037    0.55910    0.88130   1.00
H1       0.47586    0.76433    0.93015   1.00
H1       0.35958    0.56556    0.94364   1.00
C5       0.34354    0.77035    0.89743   1.00
H1       0.35433    0.69247    0.89920   1.00
H1       0.35927    0.63730    0.94395   1.00
H2       0.32168    0.76337    0.92035   1.00
H2       0.34803    0.80247    0.89796   1.00
N1       0.32889    0.75895    0.85899   1.00
C6       0.31683    0.72310    0.84837   1.00
C6       0.32463    0.78257    0.82788   1.00
C6       0.30489    0.72373    0.80994   1.00
C6       0.30986    0.76156    0.79691   1.00
H3       0.31663    0.69781    0.86732   1.00
H3       0.33194    0.81331    0.82758   1.00
H3       0.29375    0.69936    0.79329   1.00
H3       0.30341    0.77258    0.76807   1.00
H2       0.47521    0.52728    0.88481   1.00
H2       0.48301    0.56501    0.84954   1.00
N1       0.51670    0.57023    0.90053   1.00
C6       0.54238    0.54578    0.92192   1.00
C6       0.53402    0.60785    0.90159   1.00
C6       0.57343    0.56777    0.93515   1.00
C6       0.56829    0.60591    0.92268   1.00
H3       0.53801    0.51492    0.92699   1.00
H3       0.52183    0.63376    0.88825   1.00
H3       0.59759    0.55705    0.95237   1.00
H3       0.58773    0.63005    0.92854   1.00
C4       0.18585    0.41462    0.91504   1.00
C4       0.14415    0.41538    0.91496   1.00
C3       0.20749    0.39865    0.88368   1.00
C3       0.12248    0.42375    0.88084   1.00
C3       0.20762    0.43066    0.94627   1.00
C3       0.12241    0.40689    0.94904   1.00
C2       0.27018    0.41498    0.91484   1.00
C2       0.05982    0.41498    0.91484   1.00
C3a      0.24901    0.39874    0.88345   1.00
C3       0.08118    0.42355    0.88086   1.00
C3       0.24889    0.43081    0.94610   1.00
C3a      0.08097    0.40666    0.94918   1.00
H1       0.19206    0.38573    0.85935   1.00
H1       0.13750    0.43086    0.85397   1.00
C5       0.27090    0.38130    0.84963   1.00
H1       0.06567    0.43015    0.85414   1.00
H1       0.26444    0.44364    0.97042   1.00
C5       0.05965    0.39743    0.98646   1.00
H1       0.13753    0.39920    0.97567   1.00
H1       0.19270    0.44395    0.97073   1.00
H2       0.06663    0.42035    1.00832   1.00
H2       0.02753    0.39796    0.98197   1.00
N1       0.07105    0.35899    1.00111   1.00
C6       0.10690    0.34837    1.01317   1.00
C6       0.04743    0.32788    1.00537   1.00
C6       0.10627    0.30994    1.02511   1.00
C6       0.06844    0.29691    1.02014   1.00
H3       0.13219    0.36732    1.01337   1.00
H3       0.01669    0.32758    0.99806   1.00
H3       0.13064    0.29329    1.03625   1.00
H3       0.05742    0.26807    1.02659   1.00
H2       0.30272    0.38481    0.85479   1.00
H2       0.26499    0.34954    0.84699   1.00
N1       0.25977    0.40053    0.81330   1.00
C6       0.28422    0.42192    0.78762   1.00
C6       0.22215    0.40159    0.79598   1.00
C6       0.26223    0.43515    0.75657   1.00
C6       0.22409    0.42268    0.76171   1.00
H3       0.31508    0.42699    0.79199   1.00
H3       0.19624    0.38825    0.80817   1.00
H3       0.27295    0.45237    0.73241   1.00
H3       0.19995    0.42854    0.74227   1.00
C4       0.64415    0.41462    0.91496   1.00
C4       0.68585    0.41538    0.91504   1.00
C3       0.62251    0.39865    0.94632   1.00
C3       0.70752    0.42375    0.94916   1.00
C3       0.62238    0.43066    0.88373   1.00
C3       0.70759    0.40689    0.88096   1.00
C2       0.55982    0.41498    0.91516   1.00
C2       0.77018    0.41498    0.91516   1.00
C3a      0.58099    0.39874    0.94655   1.00
C3       0.74882    0.42355    0.94914   1.00
C3       0.58111    0.43081    0.88390   1.00
C3a      0.74903    0.40666    0.88082   1.00
H1       0.63794    0.38573    0.97065   1.00
H1       0.69250    0.43086    0.97603   1.00
C5       0.55910    0.38130    0.98037   1.00
H1       0.76433    0.43015    0.97586   1.00
H1       0.56556    0.44364    0.85958   1.00
C5       0.77035    0.39743    0.84354   1.00
H1       0.69247    0.39920    0.85433   1.00
H1       0.63730    0.44395    0.85927   1.00
H2       0.76337    0.42035    0.82168   1.00
H2       0.80247    0.39796    0.84803   1.00
N1       0.75895    0.35899    0.82889   1.00
C6       0.72310    0.34837    0.81683   1.00
C6       0.78257    0.32788    0.82463   1.00
C6       0.72373    0.30994    0.80489   1.00
C6       0.76156    0.29691    0.80986   1.00
H3       0.69781    0.36732    0.81663   1.00
H3       0.81331    0.32758    0.83194   1.00
H3       0.69936    0.29329    0.79375   1.00
H3       0.77258    0.26807    0.80341   1.00
H2       0.52728    0.38481    0.97521   1.00
H2       0.56501    0.34954    0.98301   1.00
N1       0.57023    0.40053    1.01670   1.00
C6       0.54578    0.42192    1.04238   1.00
C6       0.60785    0.40159    1.03402   1.00
C6       0.56777    0.43515    1.07343   1.00
C6       0.60591    0.42268    1.06829   1.00
H3       0.51492    0.42699    1.03801   1.00
H3       0.63376    0.38825    1.02183   1.00
H3       0.55705    0.45237    1.09759   1.00
H3       0.63005    0.42854    1.08773   1.00
C4       0.41504    0.18585    0.91462   1.00
C4       0.41496    0.14415    0.91538   1.00
C3       0.38368    0.20749    0.89865   1.00
C3       0.38084    0.12248    0.92375   1.00
C3       0.44627    0.20762    0.93066   1.00
C3       0.44904    0.12241    0.90689   1.00
C2       0.41484    0.27018    0.91498   1.00
C2       0.41484    0.05982    0.91498   1.00
C3a      0.38345    0.24901    0.89874   1.00
C3       0.38086    0.08118    0.92355   1.00
C3       0.44610    0.24889    0.93081   1.00
C3a      0.44918    0.08097    0.90666   1.00
H1       0.35935    0.19206    0.88573   1.00
H1       0.35397    0.13750    0.93086   1.00
C5       0.34963    0.27090    0.88130   1.00
H1       0.35414    0.06567    0.93015   1.00
H1       0.47042    0.26444    0.94364   1.00
C5       0.48646    0.05965    0.89743   1.00
H1       0.47567    0.13753    0.89920   1.00
H1       0.47073    0.19270    0.94395   1.00
H2       0.50832    0.06663    0.92035   1.00
H2       0.48197    0.02753    0.89796   1.00
N1       0.50111    0.07105    0.85899   1.00
C6       0.51317    0.10690    0.84837   1.00
C6       0.50537    0.04743    0.82788   1.00
C6       0.52511    0.10627    0.80994   1.00
C6       0.52014    0.06844    0.79691   1.00
H3       0.51337    0.13219    0.86732   1.00
H3       0.49806    0.01669    0.82758   1.00
H3       0.53625    0.13064    0.79329   1.00
H3       0.52659    0.05742    0.76807   1.00
H2       0.35479    0.30272    0.88481   1.00
H2       0.34699    0.26499    0.84954   1.00
N1       0.31330    0.25977    0.90053   1.00
C6       0.28762    0.28422    0.92192   1.00
C6       0.29598    0.22215    0.90159   1.00
C6       0.25657    0.26223    0.93515   1.00
C6       0.26171    0.22409    0.92268   1.00
H3       0.29199    0.31508    0.92699   1.00
H3       0.30817    0.19624    0.88825   1.00
H3       0.23241    0.27295    0.95237   1.00
H3       0.24227    0.19995    0.92854   1.00
C4       0.41462    0.41504    0.68585   1.00
C4       0.41538    0.41496    0.64415   1.00
C3       0.39865    0.38368    0.70749   1.00
C3       0.42375    0.38084    0.62248   1.00
C3       0.43066    0.44627    0.70762   1.00
C3       0.40689    0.44904    0.62241   1.00
C2       0.41498    0.41484    0.77018   1.00
C2       0.41498    0.41484    0.55982   1.00
C3a      0.39874    0.38345    0.74901   1.00
C3       0.42355    0.38086    0.58118   1.00
C3       0.43081    0.44610    0.74889   1.00
C3a      0.40666    0.44918    0.58097   1.00
H1       0.38573    0.35935    0.69206   1.00
H1       0.43086    0.35397    0.63750   1.00
C5       0.38130    0.34963    0.77090   1.00
H1       0.43015    0.35414    0.56567   1.00
H1       0.44364    0.47042    0.76444   1.00
C5       0.39743    0.48646    0.55965   1.00
H1       0.39920    0.47567    0.63753   1.00
H1       0.44395    0.47073    0.69270   1.00
H2       0.42035    0.50832    0.56663   1.00
H2       0.39796    0.48197    0.52753   1.00
N1       0.35899    0.50111    0.57105   1.00
C6       0.34837    0.51317    0.60690   1.00
C6       0.32788    0.50537    0.54743   1.00
C6       0.30994    0.52511    0.60627   1.00
C6       0.29691    0.52014    0.56844   1.00
H3       0.36732    0.51337    0.63219   1.00
H3       0.32758    0.49806    0.51669   1.00
H3       0.29329    0.53625    0.63064   1.00
H3       0.26807    0.52659    0.55742   1.00
H2       0.38481    0.35479    0.80272   1.00
H2       0.34954    0.34699    0.76499   1.00
N1       0.40053    0.31330    0.75977   1.00
C6       0.42192    0.28762    0.78422   1.00
C6       0.40159    0.29598    0.72215   1.00
C6       0.43515    0.25657    0.76223   1.00
C6       0.42268    0.26171    0.72409   1.00
H3       0.42699    0.29199    0.81508   1.00
H3       0.38825    0.30817    0.69624   1.00
H3       0.45237    0.23241    0.77295   1.00
H3       0.42854    0.24227    0.69995   1.00
C4       0.41462    0.91496    0.64415   1.00
C4       0.41538    0.91504    0.68585   1.00
C3       0.39865    0.94632    0.62251   1.00
C3       0.42375    0.94916    0.70752   1.00
C3       0.43066    0.88373    0.62238   1.00
C3       0.40689    0.88096    0.70759   1.00
C2       0.41498    0.91516    0.55982   1.00
C2       0.41498    0.91516    0.77018   1.00
C3a      0.39874    0.94655    0.58099   1.00
C3       0.42355    0.94914    0.74882   1.00
C3       0.43081    0.88390    0.58111   1.00
C3a      0.40666    0.88082    0.74903   1.00
H1       0.38573    0.97065    0.63794   1.00
H1       0.43086    0.97603    0.69250   1.00
C5       0.38130    0.98037    0.55910   1.00
H1       0.43015    0.97586    0.76433   1.00
H1       0.44364    0.85958    0.56556   1.00
C5       0.39743    0.84354    0.77035   1.00
H1       0.39920    0.85433    0.69247   1.00
H1       0.44395    0.85927    0.63730   1.00
H2       0.42035    0.82168    0.76337   1.00
H2       0.39796    0.84803    0.80247   1.00
N1       0.35899    0.82889    0.75895   1.00
C6       0.34837    0.81683    0.72310   1.00
C6       0.32788    0.82463    0.78257   1.00
C6       0.30994    0.80489    0.72373   1.00
C6       0.29691    0.80986    0.76156   1.00
H3       0.36732    0.81663    0.69781   1.00
H3       0.32758    0.83194    0.81331   1.00
H3       0.29329    0.79375    0.69936   1.00
H3       0.26807    0.80341    0.77258   1.00
H2       0.38481    0.97521    0.52728   1.00
H2       0.34954    0.98301    0.56501   1.00
N1       0.40053    1.01670    0.57023   1.00
C6       0.42192    1.04238    0.54578   1.00
C6       0.40159    1.03402    0.60785   1.00
C6       0.43515    1.07343    0.56777   1.00
C6       0.42268    1.06829    0.60591   1.00
H3       0.42699    1.03801    0.51492   1.00
H3       0.38825    1.02183    0.63376   1.00
H3       0.45237    1.09759    0.55705   1.00
H3       0.42854    1.08773    0.63005   1.00
C4       0.41496    1.14415    0.41462   1.00
C4       0.41504    1.18585    0.41538   1.00
C3       0.44632    1.12251    0.39865   1.00
C3       0.44916    1.20752    0.42375   1.00
C3       0.38373    1.12238    0.43066   1.00
C3       0.38096    1.20759    0.40689   1.00
C2       0.41516    1.05982    0.41498   1.00
C2       0.41516    1.27018    0.41498   1.00
C3a      0.44655    1.08099    0.39874   1.00
C3       0.44914    1.24882    0.42355   1.00
C3       0.38390    1.08111    0.43081   1.00
C3a      0.38082    1.24903    0.40666   1.00
H1       0.47065    1.13794    0.38573   1.00
H1       0.47603    1.19250    0.43086   1.00
C5       0.48037    1.05910    0.38130   1.00
H1       0.47586    1.26433    0.43015   1.00
H1       0.35958    1.06556    0.44364   1.00
C5       0.34354    1.27035    0.39743   1.00
H1       0.35433    1.19247    0.39920   1.00
H1       0.35927    1.13730    0.44395   1.00
H2       0.32168    1.26337    0.42035   1.00
H2       0.34803    1.30247    0.39796   1.00
N1       0.32889    1.25895    0.35899   1.00
C6       0.31683    1.22310    0.34837   1.00
C6       0.32463    1.28257    0.32788   1.00
C6       0.30489    1.22373    0.30994   1.00
C6       0.30986    1.26156    0.29691   1.00
H3       0.31663    1.19781    0.36732   1.00
H3       0.33194    1.31331    0.32758   1.00
H3       0.29375    1.19936    0.29329   1.00
H3       0.30341    1.27258    0.26807   1.00
H2       0.47521    1.02728    0.38481   1.00
H2       0.48301    1.06501    0.34954   1.00
N1       0.51670    1.07023    0.40053   1.00
C6       0.54238    1.04578    0.42192   1.00
C6       0.53402    1.10785    0.40159   1.00
C6       0.57343    1.06777    0.43515   1.00
C6       0.56829    1.10591    0.42268   1.00
H3       0.53801    1.01492    0.42699   1.00
H3       0.52183    1.13376    0.38825   1.00
H3       0.59759    1.05705    0.45237   1.00
H3       0.58773    1.13005    0.42854   1.00
C4       0.18585    0.91462    0.41504   1.00
C4       0.14415    0.91538    0.41496   1.00
C3       0.20749    0.89865    0.38368   1.00
C3       0.12248    0.92375    0.38084   1.00
C3       0.20762    0.93066    0.44627   1.00
C3       0.12241    0.90689    0.44904   1.00
C2       0.27018    0.91498    0.41484   1.00
C2       0.05982    0.91498    0.41484   1.00
C3a      0.24901    0.89874    0.38345   1.00
C3       0.08118    0.92355    0.38086   1.00
C3       0.24889    0.93081    0.44610   1.00
C3a      0.08097    0.90666    0.44918   1.00
H1       0.19206    0.88573    0.35935   1.00
H1       0.13750    0.93086    0.35397   1.00
C5       0.27090    0.88130    0.34963   1.00
H1       0.06567    0.93015    0.35414   1.00
H1       0.26444    0.94364    0.47042   1.00
C5       0.05965    0.89743    0.48646   1.00
H1       0.13753    0.89920    0.47567   1.00
H1       0.19270    0.94395    0.47073   1.00
H2       0.06663    0.92035    0.50832   1.00
H2       0.02753    0.89796    0.48197   1.00
N1       0.07105    0.85899    0.50111   1.00
C6       0.10690    0.84837    0.51317   1.00
C6       0.04743    0.82788    0.50537   1.00
C6       0.10627    0.80994    0.52511   1.00
C6       0.06844    0.79691    0.52014   1.00
H3       0.13219    0.86732    0.51337   1.00
H3       0.01669    0.82758    0.49806   1.00
H3       0.13064    0.79329    0.53625   1.00
H3       0.05742    0.76807    0.52659   1.00
H2       0.30272    0.88481    0.35479   1.00
H2       0.26499    0.84954    0.34699   1.00
N1       0.25977    0.90053    0.31330   1.00
C6       0.28422    0.92192    0.28762   1.00
C6       0.22215    0.90159    0.29598   1.00
C6       0.26223    0.93515    0.25657   1.00
C6       0.22409    0.92268    0.26171   1.00
H3       0.31508    0.92699    0.29199   1.00
H3       0.19624    0.88825    0.30817   1.00
H3       0.27295    0.95237    0.23241   1.00
H3       0.19995    0.92854    0.24227   1.00
C4       0.64415    0.91462    0.41496   1.00
C4       0.68585    0.91538    0.41504   1.00
C3       0.62251    0.89865    0.44632   1.00
C3       0.70752    0.92375    0.44916   1.00
C3       0.62238    0.93066    0.38373   1.00
C3       0.70759    0.90689    0.38096   1.00
C2       0.55982    0.91498    0.41516   1.00
C2       0.77018    0.91498    0.41516   1.00
C3a      0.58099    0.89874    0.44655   1.00
C3       0.74882    0.92355    0.44914   1.00
C3       0.58111    0.93081    0.38390   1.00
C3a      0.74903    0.90666    0.38082   1.00
H1       0.63794    0.88573    0.47065   1.00
H1       0.69250    0.93086    0.47603   1.00
C5       0.55910    0.88130    0.48037   1.00
H1       0.76433    0.93015    0.47586   1.00
H1       0.56556    0.94364    0.35958   1.00
C5       0.77035    0.89743    0.34354   1.00
H1       0.69247    0.89920    0.35433   1.00
H1       0.63730    0.94395    0.35927   1.00
H2       0.76337    0.92035    0.32168   1.00
H2       0.80247    0.89796    0.34803   1.00
N1       0.75895    0.85899    0.32889   1.00
C6       0.72310    0.84837    0.31683   1.00
C6       0.78257    0.82788    0.32463   1.00
C6       0.72373    0.80994    0.30489   1.00
C6       0.76156    0.79691    0.30986   1.00
H3       0.69781    0.86732    0.31663   1.00
H3       0.81331    0.82758    0.33194   1.00
H3       0.69936    0.79329    0.29375   1.00
H3       0.77258    0.76807    0.30341   1.00
H2       0.52728    0.88481    0.47521   1.00
H2       0.56501    0.84954    0.48301   1.00
N1       0.57023    0.90053    0.51670   1.00
C6       0.54578    0.92192    0.54238   1.00
C6       0.60785    0.90159    0.53402   1.00
C6       0.56777    0.93515    0.57343   1.00
C6       0.60591    0.92268    0.56829   1.00
H3       0.51492    0.92699    0.53801   1.00
H3       0.63376    0.88825    0.52183   1.00
H3       0.55705    0.95237    0.59759   1.00
H3       0.63005    0.92854    0.58773   1.00
C4       0.41504    0.68585    0.41462   1.00
C4       0.41496    0.64415    0.41538   1.00
C3       0.38368    0.70749    0.39865   1.00
C3       0.38084    0.62248    0.42375   1.00
C3       0.44627    0.70762    0.43066   1.00
C3       0.44904    0.62241    0.40689   1.00
C2       0.41484    0.77018    0.41498   1.00
C2       0.41484    0.55982    0.41498   1.00
C3a      0.38345    0.74901    0.39874   1.00
C3       0.38086    0.58118    0.42355   1.00
C3       0.44610    0.74889    0.43081   1.00
C3a      0.44918    0.58097    0.40666   1.00
H1       0.35935    0.69206    0.38573   1.00
H1       0.35397    0.63750    0.43086   1.00
C5       0.34963    0.77090    0.38130   1.00
H1       0.35414    0.56567    0.43015   1.00
H1       0.47042    0.76444    0.44364   1.00
C5       0.48646    0.55965    0.39743   1.00
H1       0.47567    0.63753    0.39920   1.00
H1       0.47073    0.69270    0.44395   1.00
H2       0.50832    0.56663    0.42035   1.00
H2       0.48197    0.52753    0.39796   1.00
N1       0.50111    0.57105    0.35899   1.00
C6       0.51317    0.60690    0.34837   1.00
C6       0.50537    0.54743    0.32788   1.00
C6       0.52511    0.60627    0.30994   1.00
C6       0.52014    0.56844    0.29691   1.00
H3       0.51337    0.63219    0.36732   1.00
H3       0.49806    0.51669    0.32758   1.00
H3       0.53625    0.63064    0.29329   1.00
H3       0.52659    0.55742    0.26807   1.00
H2       0.35479    0.80272    0.38481   1.00
H2       0.34699    0.76499    0.34954   1.00
N1       0.31330    0.75977    0.40053   1.00
C6       0.28762    0.78422    0.42192   1.00
C6       0.29598    0.72215    0.40159   1.00
C6       0.25657    0.76223    0.43515   1.00
C6       0.26171    0.72409    0.42268   1.00
H3       0.29199    0.81508    0.42699   1.00
H3       0.30817    0.69624    0.38825   1.00
H3       0.23241    0.77295    0.45237   1.00
H3       0.24227    0.69995    0.42854   1.00
C4       0.41462    0.91504    0.18585   1.00
C4       0.41538    0.91496    0.14415   1.00
C3       0.39865    0.88368    0.20749   1.00
C3       0.42375    0.88084    0.12248   1.00
C3       0.43066    0.94627    0.20762   1.00
C3       0.40689    0.94904    0.12241   1.00
C2       0.41498    0.91484    0.27018   1.00
C2       0.41498    0.91484    0.05982   1.00
C3a      0.39874    0.88345    0.24901   1.00
C3       0.42355    0.88086    0.08118   1.00
C3       0.43081    0.94610    0.24889   1.00
C3a      0.40666    0.94918    0.08097   1.00
H1       0.38573    0.85935    0.19206   1.00
H1       0.43086    0.85397    0.13750   1.00
C5       0.38130    0.84963    0.27090   1.00
H1       0.43015    0.85414    0.06567   1.00
H1       0.44364    0.97042    0.26444   1.00
C5       0.39743    0.98646    0.05965   1.00
H1       0.39920    0.97567    0.13753   1.00
H1       0.44395    0.97073    0.19270   1.00
H2       0.42035    1.00832    0.06663   1.00
H2       0.39796    0.98197    0.02753   1.00
N1       0.35899    1.00111    0.07105   1.00
C6       0.34837    1.01317    0.10690   1.00
C6       0.32788    1.00537    0.04743   1.00
C6       0.30994    1.02511    0.10627   1.00
C6       0.29691    1.02014    0.06844   1.00
H3       0.36732    1.01337    0.13219   1.00
H3       0.32758    0.99806    0.01669   1.00
H3       0.29329    1.03625    0.13064   1.00
H3       0.26807    1.02659    0.05742   1.00
H2       0.38481    0.85479    0.30272   1.00
H2       0.34954    0.84699    0.26499   1.00
N1       0.40053    0.81330    0.25977   1.00
C6       0.42192    0.78762    0.28422   1.00
C6       0.40159    0.79598    0.22215   1.00
C6       0.43515    0.75657    0.26223   1.00
C6       0.42268    0.76171    0.22409   1.00
H3       0.42699    0.79199    0.31508   1.00
H3       0.38825    0.80817    0.19624   1.00
H3       0.45237    0.73241    0.27295   1.00
H3       0.42854    0.74227    0.19995   1.00
C4       0.91462    0.41496    0.64415   1.00
C4       0.91538    0.41504    0.68585   1.00
C3       0.89865    0.44632    0.62251   1.00
C3       0.92375    0.44916    0.70752   1.00
C3       0.93066    0.38373    0.62238   1.00
C3       0.90689    0.38096    0.70759   1.00
C2       0.91498    0.41516    0.55982   1.00
C2       0.91498    0.41516    0.77018   1.00
C3a      0.89874    0.44655    0.58099   1.00
C3       0.92355    0.44914    0.74882   1.00
C3       0.93081    0.38390    0.58111   1.00
C3a      0.90666    0.38082    0.74903   1.00
H1       0.88573    0.47065    0.63794   1.00
H1       0.93086    0.47603    0.69250   1.00
C5       0.88130    0.48037    0.55910   1.00
H1       0.93015    0.47586    0.76433   1.00
H1       0.94364    0.35958    0.56556   1.00
C5       0.89743    0.34354    0.77035   1.00
H1       0.89920    0.35433    0.69247   1.00
H1       0.94395    0.35927    0.63730   1.00
H2       0.92035    0.32168    0.76337   1.00
H2       0.89796    0.34803    0.80247   1.00
N1       0.85899    0.32889    0.75895   1.00
C6       0.84837    0.31683    0.72310   1.00
C6       0.82788    0.32463    0.78257   1.00
C6       0.80994    0.30489    0.72373   1.00
C6       0.79691    0.30986    0.76156   1.00
H3       0.86732    0.31663    0.69781   1.00
H3       0.82758    0.33194    0.81331   1.00
H3       0.79329    0.29375    0.69936   1.00
H3       0.76807    0.30341    0.77258   1.00
H2       0.88481    0.47521    0.52728   1.00
H2       0.84954    0.48301    0.56501   1.00
N1       0.90053    0.51670    0.57023   1.00
C6       0.92192    0.54238    0.54578   1.00
C6       0.90159    0.53402    0.60785   1.00
C6       0.93515    0.57343    0.56777   1.00
C6       0.92268    0.56829    0.60591   1.00
H3       0.92699    0.53801    0.51492   1.00
H3       0.88825    0.52183    0.63376   1.00
H3       0.95237    0.59759    0.55705   1.00
H3       0.92854    0.58773    0.63005   1.00
C4       0.91496    0.64415    0.41462   1.00
C4       0.91504    0.68585    0.41538   1.00
C3       0.94632    0.62251    0.39865   1.00
C3       0.94916    0.70752    0.42375   1.00
C3       0.88373    0.62238    0.43066   1.00
C3       0.88096    0.70759    0.40689   1.00
C2       0.91516    0.55982    0.41498   1.00
C2       0.91516    0.77018    0.41498   1.00
C3a      0.94655    0.58099    0.39874   1.00
C3       0.94914    0.74882    0.42355   1.00
C3       0.88390    0.58111    0.43081   1.00
C3a      0.88082    0.74903    0.40666   1.00
H1       0.97065    0.63794    0.38573   1.00
H1       0.97603    0.69250    0.43086   1.00
C5       0.98037    0.55910    0.38130   1.00
H1       0.97586    0.76433    0.43015   1.00
H1       0.85958    0.56556    0.44364   1.00
C5       0.84354    0.77035    0.39743   1.00
H1       0.85433    0.69247    0.39920   1.00
H1       0.85927    0.63730    0.44395   1.00
H2       0.82168    0.76337    0.42035   1.00
H2       0.84803    0.80247    0.39796   1.00
N1       0.82889    0.75895    0.35899   1.00
C6       0.81683    0.72310    0.34837   1.00
C6       0.82463    0.78257    0.32788   1.00
C6       0.80489    0.72373    0.30994   1.00
C6       0.80986    0.76156    0.29691   1.00
H3       0.81663    0.69781    0.36732   1.00
H3       0.83194    0.81331    0.32758   1.00
H3       0.79375    0.69936    0.29329   1.00
H3       0.80341    0.77258    0.26807   1.00
H2       0.97521    0.52728    0.38481   1.00
H2       0.98301    0.56501    0.34954   1.00
N1       1.01670    0.57023    0.40053   1.00
C6       1.04238    0.54578    0.42192   1.00
C6       1.03402    0.60785    0.40159   1.00
C6       1.07343    0.56777    0.43515   1.00
C6       1.06829    0.60591    0.42268   1.00
H3       1.03801    0.51492    0.42699   1.00
H3       1.02183    0.63376    0.38825   1.00
H3       1.09759    0.55705    0.45237   1.00
H3       1.08773    0.63005    0.42854   1.00
C4       0.68585    0.41462    0.41504   1.00
C4       0.64415    0.41538    0.41496   1.00
C3       0.70749    0.39865    0.38368   1.00
C3       0.62248    0.42375    0.38084   1.00
C3       0.70762    0.43066    0.44627   1.00
C3       0.62241    0.40689    0.44904   1.00
C2       0.77018    0.41498    0.41484   1.00
C2       0.55982    0.41498    0.41484   1.00
C3a      0.74901    0.39874    0.38345   1.00
C3       0.58118    0.42355    0.38086   1.00
C3       0.74889    0.43081    0.44610   1.00
C3a      0.58097    0.40666    0.44918   1.00
H1       0.69206    0.38573    0.35935   1.00
H1       0.63750    0.43086    0.35397   1.00
C5       0.77090    0.38130    0.34963   1.00
H1       0.56567    0.43015    0.35414   1.00
H1       0.76444    0.44364    0.47042   1.00
C5       0.55965    0.39743    0.48646   1.00
H1       0.63753    0.39920    0.47567   1.00
H1       0.69270    0.44395    0.47073   1.00
H2       0.56663    0.42035    0.50832   1.00
H2       0.52753    0.39796    0.48197   1.00
N1       0.57105    0.35899    0.50111   1.00
C6       0.60690    0.34837    0.51317   1.00
C6       0.54743    0.32788    0.50537   1.00
C6       0.60627    0.30994    0.52511   1.00
C6       0.56844    0.29691    0.52014   1.00
H3       0.63219    0.36732    0.51337   1.00
H3       0.51669    0.32758    0.49806   1.00
H3       0.63064    0.29329    0.53625   1.00
H3       0.55742    0.26807    0.52659   1.00
H2       0.80272    0.38481    0.35479   1.00
H2       0.76499    0.34954    0.34699   1.00
N1       0.75977    0.40053    0.31330   1.00
C6       0.78422    0.42192    0.28762   1.00
C6       0.72215    0.40159    0.29598   1.00
C6       0.76223    0.43515    0.25657   1.00
C6       0.72409    0.42268    0.26171   1.00
H3       0.81508    0.42699    0.29199   1.00
H3       0.69624    0.38825    0.30817   1.00
H3       0.77295    0.45237    0.23241   1.00
H3       0.69995    0.42854    0.24227   1.00
C4       1.14415    0.41462    0.41496   1.00
C4       1.18585    0.41538    0.41504   1.00
C3       1.12251    0.39865    0.44632   1.00
C3       1.20752    0.42375    0.44916   1.00
C3       1.12238    0.43066    0.38373   1.00
C3       1.20759    0.40689    0.38096   1.00
C2       1.05982    0.41498    0.41516   1.00
C2       1.27018    0.41498    0.41516   1.00
C3a      1.08099    0.39874    0.44655   1.00
C3       1.24882    0.42355    0.44914   1.00
C3       1.08111    0.43081    0.38390   1.00
C3a      1.24903    0.40666    0.38082   1.00
H1       1.13794    0.38573    0.47065   1.00
H1       1.19250    0.43086    0.47603   1.00
C5       1.05910    0.38130    0.48037   1.00
H1       1.26433    0.43015    0.47586   1.00
H1       1.06556    0.44364    0.35958   1.00
C5       1.27035    0.39743    0.34354   1.00
H1       1.19247    0.39920    0.35433   1.00
H1       1.13730    0.44395    0.35927   1.00
H2       1.26337    0.42035    0.32168   1.00
H2       1.30247    0.39796    0.34803   1.00
N1       1.25895    0.35899    0.32889   1.00
C6       1.22310    0.34837    0.31683   1.00
C6       1.28257    0.32788    0.32463   1.00
C6       1.22373    0.30994    0.30489   1.00
C6       1.26156    0.29691    0.30986   1.00
H3       1.19781    0.36732    0.31663   1.00
H3       1.31331    0.32758    0.33194   1.00
H3       1.19936    0.29329    0.29375   1.00
H3       1.27258    0.26807    0.30341   1.00
H2       1.02728    0.38481    0.47521   1.00
H2       1.06501    0.34954    0.48301   1.00
N1       1.07023    0.40053    0.51670   1.00
C6       1.04578    0.42192    0.54238   1.00
C6       1.10785    0.40159    0.53402   1.00
C6       1.06777    0.43515    0.57343   1.00
C6       1.10591    0.42268    0.56829   1.00
H3       1.01492    0.42699    0.53801   1.00
H3       1.13376    0.38825    0.52183   1.00
H3       1.05705    0.45237    0.59759   1.00
H3       1.13005    0.42854    0.58773   1.00
C4       0.91504    0.18585    0.41462   1.00
C4       0.91496    0.14415    0.41538   1.00
C3       0.88368    0.20749    0.39865   1.00
C3       0.88084    0.12248    0.42375   1.00
C3       0.94627    0.20762    0.43066   1.00
C3       0.94904    0.12241    0.40689   1.00
C2       0.91484    0.27018    0.41498   1.00
C2       0.91484    0.05982    0.41498   1.00
C3a      0.88345    0.24901    0.39874   1.00
C3       0.88086    0.08118    0.42355   1.00
C3       0.94610    0.24889    0.43081   1.00
C3a      0.94918    0.08097    0.40666   1.00
H1       0.85935    0.19206    0.38573   1.00
H1       0.85397    0.13750    0.43086   1.00
C5       0.84963    0.27090    0.38130   1.00
H1       0.85414    0.06567    0.43015   1.00
H1       0.97042    0.26444    0.44364   1.00
C5       0.98646    0.05965    0.39743   1.00
H1       0.97567    0.13753    0.39920   1.00
H1       0.97073    0.19270    0.44395   1.00
H2       1.00832    0.06663    0.42035   1.00
H2       0.98197    0.02753    0.39796   1.00
N1       1.00111    0.07105    0.35899   1.00
C6       1.01317    0.10690    0.34837   1.00
C6       1.00537    0.04743    0.32788   1.00
C6       1.02511    0.10627    0.30994   1.00
C6       1.02014    0.06844    0.29691   1.00
H3       1.01337    0.13219    0.36732   1.00
H3       0.99806    0.01669    0.32758   1.00
H3       1.03625    0.13064    0.29329   1.00
H3       1.02659    0.05742    0.26807   1.00
H2       0.85479    0.30272    0.38481   1.00
H2       0.84699    0.26499    0.34954   1.00
N1       0.81330    0.25977    0.40053   1.00
C6       0.78762    0.28422    0.42192   1.00
C6       0.79598    0.22215    0.40159   1.00
C6       0.75657    0.26223    0.43515   1.00
C6       0.76171    0.22409    0.42268   1.00
H3       0.79199    0.31508    0.42699   1.00
H3       0.80817    0.19624    0.38825   1.00
H3       0.73241    0.27295    0.45237   1.00
H3       0.74227    0.19995    0.42854   1.00
C4       0.91462    0.41504    0.18585   1.00
C4       0.91538    0.41496    0.14415   1.00
C3       0.89865    0.38368    0.20749   1.00
C3       0.92375    0.38084    0.12248   1.00
C3       0.93066    0.44627    0.20762   1.00
C3       0.90689    0.44904    0.12241   1.00
C2       0.91498    0.41484    0.27018   1.00
C2       0.91498    0.41484    0.05982   1.00
C3a      0.89874    0.38345    0.24901   1.00
C3       0.92355    0.38086    0.08118   1.00
C3       0.93081    0.44610    0.24889   1.00
C3a      0.90666    0.44918    0.08097   1.00
H1       0.88573    0.35935    0.19206   1.00
H1       0.93086    0.35397    0.13750   1.00
C5       0.88130    0.34963    0.27090   1.00
H1       0.93015    0.35414    0.06567   1.00
H1       0.94364    0.47042    0.26444   1.00
C5       0.89743    0.48646    0.05965   1.00
H1       0.89920    0.47567    0.13753   1.00
H1       0.94395    0.47073    0.19270   1.00
H2       0.92035    0.50832    0.06663   1.00
H2       0.89796    0.48197    0.02753   1.00
N1       0.85899    0.50111    0.07105   1.00
C6       0.84837    0.51317    0.10690   1.00
C6       0.82788    0.50537    0.04743   1.00
C6       0.80994    0.52511    0.10627   1.00
C6       0.79691    0.52014    0.06844   1.00
H3       0.86732    0.51337    0.13219   1.00
H3       0.82758    0.49806    0.01669   1.00
H3       0.79329    0.53625    0.13064   1.00
H3       0.76807    0.52659    0.05742   1.00
H2       0.88481    0.35479    0.30272   1.00
H2       0.84954    0.34699    0.26499   1.00
N1       0.90053    0.31330    0.25977   1.00
C6       0.92192    0.28762    0.28422   1.00
C6       0.90159    0.29598    0.22215   1.00
C6       0.93515    0.25657    0.26223   1.00
C6       0.92268    0.26171    0.22409   1.00
H3       0.92699    0.29199    0.31508   1.00
H3       0.88825    0.30817    0.19624   1.00
H3       0.95237    0.23241    0.27295   1.00
H3       0.92854    0.24227    0.19995   1.00
