data_IRMOF10_SG202_interpen_Ligand12cp_label_c.

_audit_creation_method             'generated by an auxiliary program of Tobunporous'

_symmetry_space_group_name_H-M     'P 1'
_symmetry_Int_Tables_number        1
_symmetry_cell_setting             triclinic

_cell_length_a                    34.2800
_cell_length_b                    34.2800
_cell_length_c                    34.2800
_cell_angle_alpha                 90.0000
_cell_angle_beta                  90.0000
_cell_angle_gamma                 90.0000

loop_
_atom_site_label
_atom_site_fract_x
_atom_site_fract_y
_atom_site_fract_z
_atom_site_occupancy
O1       0.75000    0.75000    0.75000   1.00
Zn1      0.71720    0.78280    0.78280   1.00
Zn1      0.78280    0.71720    0.78280   1.00
Zn1      0.78280    0.78280    0.71720   1.00
Zn1      0.71720    0.71720    0.71720   1.00
O2       0.72650    0.77350    0.83820   1.00
O2       0.72650    0.83820    0.77350   1.00
O2       0.66180    0.77350    0.77350   1.00
O2       0.77350    0.72650    0.83820   1.00
O2       0.83820    0.72650    0.77350   1.00
O2       0.77350    0.66180    0.77350   1.00
O2       0.77350    0.83820    0.72650   1.00
O2       0.83820    0.77350    0.72650   1.00
O2       0.77350    0.77350    0.66180   1.00
O2       0.66180    0.72650    0.72650   1.00
O2       0.72650    0.66180    0.72650   1.00
O2       0.72650    0.72650    0.66180   1.00
C1       0.75000    0.75000    0.85520   1.00
C1       0.75000    0.85520    0.75000   1.00
C1       0.64480    0.75000    0.75000   1.00
C1       0.85520    0.75000    0.75000   1.00
C1       0.75000    0.64480    0.75000   1.00
C1       0.75000    0.75000    0.64480   1.00
O1       0.25000    0.25000    0.75000   1.00
Zn1      0.21720    0.28280    0.78280   1.00
Zn1      0.28280    0.21720    0.78280   1.00
Zn1      0.28280    0.28280    0.71720   1.00
Zn1      0.21720    0.21720    0.71720   1.00
O2       0.22650    0.27350    0.83820   1.00
O2       0.22650    0.33820    0.77350   1.00
O2       0.16180    0.27350    0.77350   1.00
O2       0.27350    0.22650    0.83820   1.00
O2       0.33820    0.22650    0.77350   1.00
O2       0.27350    0.16180    0.77350   1.00
O2       0.27350    0.33820    0.72650   1.00
O2       0.33820    0.27350    0.72650   1.00
O2       0.27350    0.27350    0.66180   1.00
O2       0.16180    0.22650    0.72650   1.00
O2       0.22650    0.16180    0.72650   1.00
O2       0.22650    0.22650    0.66180   1.00
C1       0.25000    0.25000    0.85520   1.00
C1       0.25000    0.35520    0.75000   1.00
C1       0.14480    0.25000    0.75000   1.00
C1       0.35520    0.25000    0.75000   1.00
C1       0.25000    0.14480    0.75000   1.00
C1       0.25000    0.25000    0.64480   1.00
O1       0.25000    0.75000    0.25000   1.00
Zn1      0.21720    0.78280    0.28280   1.00
Zn1      0.28280    0.71720    0.28280   1.00
Zn1      0.28280    0.78280    0.21720   1.00
Zn1      0.21720    0.71720    0.21720   1.00
O2       0.22650    0.77350    0.33820   1.00
O2       0.22650    0.83820    0.27350   1.00
O2       0.16180    0.77350    0.27350   1.00
O2       0.27350    0.72650    0.33820   1.00
O2       0.33820    0.72650    0.27350   1.00
O2       0.27350    0.66180    0.27350   1.00
O2       0.27350    0.83820    0.22650   1.00
O2       0.33820    0.77350    0.22650   1.00
O2       0.27350    0.77350    0.16180   1.00
O2       0.16180    0.72650    0.22650   1.00
O2       0.22650    0.66180    0.22650   1.00
O2       0.22650    0.72650    0.16180   1.00
C1       0.25000    0.75000    0.35520   1.00
C1       0.25000    0.85520    0.25000   1.00
C1       0.14480    0.75000    0.25000   1.00
C1       0.35520    0.75000    0.25000   1.00
C1       0.25000    0.64480    0.25000   1.00
C1       0.25000    0.75000    0.14480   1.00
O1       0.75000    0.25000    0.25000   1.00
Zn1      0.71720    0.28280    0.28280   1.00
Zn1      0.78280    0.21720    0.28280   1.00
Zn1      0.78280    0.28280    0.21720   1.00
Zn1      0.71720    0.21720    0.21720   1.00
O2       0.72650    0.27350    0.33820   1.00
O2       0.72650    0.33820    0.27350   1.00
O2       0.66180    0.27350    0.27350   1.00
O2       0.77350    0.22650    0.33820   1.00
O2       0.83820    0.22650    0.27350   1.00
O2       0.77350    0.16180    0.27350   1.00
O2       0.77350    0.33820    0.22650   1.00
O2       0.83820    0.27350    0.22650   1.00
O2       0.77350    0.27350    0.16180   1.00
O2       0.66180    0.22650    0.22650   1.00
O2       0.72650    0.16180    0.22650   1.00
O2       0.72650    0.22650    0.16180   1.00
C1       0.75000    0.25000    0.35520   1.00
C1       0.75000    0.35520    0.25000   1.00
C1       0.64480    0.25000    0.25000   1.00
C1       0.85520    0.25000    0.25000   1.00
C1       0.75000    0.14480    0.25000   1.00
C1       0.75000    0.25000    0.14480   1.00
O1       0.25000    0.25000    0.25000   1.00
Zn1      0.28280    0.21720    0.21720   1.00
Zn1      0.21720    0.28280    0.21720   1.00
Zn1      0.21720    0.21720    0.28280   1.00
Zn1      0.28280    0.28280    0.28280   1.00
O2       0.27350    0.22650    0.16180   1.00
O2       0.27350    0.16180    0.22650   1.00
O2       0.33820    0.22650    0.22650   1.00
O2       0.22650    0.27350    0.16180   1.00
O2       0.16180    0.27350    0.22650   1.00
O2       0.22650    0.33820    0.22650   1.00
O2       0.22650    0.16180    0.27350   1.00
O2       0.16180    0.22650    0.27350   1.00
O2       0.22650    0.22650    0.33820   1.00
O2       0.33820    0.27350    0.27350   1.00
O2       0.27350    0.33820    0.27350   1.00
O2       0.27350    0.27350    0.33820   1.00
C1       0.25000    0.25000    0.14480   1.00
C1       0.25000    0.14480    0.25000   1.00
C1       0.35520    0.25000    0.25000   1.00
C1       0.14480    0.25000    0.25000   1.00
C1       0.25000    0.35520    0.25000   1.00
C1       0.25000    0.25000    0.35520   1.00
O1       0.75000    0.75000    0.25000   1.00
Zn1      0.78280    0.71720    0.21720   1.00
Zn1      0.71720    0.78280    0.21720   1.00
Zn1      0.71720    0.71720    0.28280   1.00
Zn1      0.78280    0.78280    0.28280   1.00
O2       0.77350    0.72650    0.16180   1.00
O2       0.77350    0.66180    0.22650   1.00
O2       0.83820    0.72650    0.22650   1.00
O2       0.72650    0.77350    0.16180   1.00
O2       0.66180    0.77350    0.22650   1.00
O2       0.72650    0.83820    0.22650   1.00
O2       0.72650    0.66180    0.27350   1.00
O2       0.66180    0.72650    0.27350   1.00
O2       0.72650    0.72650    0.33820   1.00
O2       0.83820    0.77350    0.27350   1.00
O2       0.77350    0.83820    0.27350   1.00
O2       0.77350    0.77350    0.33820   1.00
C1       0.75000    0.75000    0.14480   1.00
C1       0.75000    0.64480    0.25000   1.00
C1       0.85520    0.75000    0.25000   1.00
C1       0.64480    0.75000    0.25000   1.00
C1       0.75000    0.85520    0.25000   1.00
C1       0.75000    0.75000    0.35520   1.00
O1       0.75000    0.25000    0.75000   1.00
Zn1      0.78280    0.21720    0.71720   1.00
Zn1      0.71720    0.28280    0.71720   1.00
Zn1      0.71720    0.21720    0.78280   1.00
Zn1      0.78280    0.28280    0.78280   1.00
O2       0.77350    0.22650    0.66180   1.00
O2       0.77350    0.16180    0.72650   1.00
O2       0.83820    0.22650    0.72650   1.00
O2       0.72650    0.27350    0.66180   1.00
O2       0.66180    0.27350    0.72650   1.00
O2       0.72650    0.33820    0.72650   1.00
O2       0.72650    0.16180    0.77350   1.00
O2       0.66180    0.22650    0.77350   1.00
O2       0.72650    0.22650    0.83820   1.00
O2       0.83820    0.27350    0.77350   1.00
O2       0.77350    0.33820    0.77350   1.00
O2       0.77350    0.27350    0.83820   1.00
C1       0.75000    0.25000    0.64480   1.00
C1       0.75000    0.14480    0.75000   1.00
C1       0.85520    0.25000    0.75000   1.00
C1       0.64480    0.25000    0.75000   1.00
C1       0.75000    0.35520    0.75000   1.00
C1       0.75000    0.25000    0.85520   1.00
O1       0.25000    0.75000    0.75000   1.00
Zn1      0.28280    0.71720    0.71720   1.00
Zn1      0.21720    0.78280    0.71720   1.00
Zn1      0.21720    0.71720    0.78280   1.00
Zn1      0.28280    0.78280    0.78280   1.00
O2       0.27350    0.72650    0.66180   1.00
O2       0.27350    0.66180    0.72650   1.00
O2       0.33820    0.72650    0.72650   1.00
O2       0.22650    0.77350    0.66180   1.00
O2       0.16180    0.77350    0.72650   1.00
O2       0.22650    0.83820    0.72650   1.00
O2       0.22650    0.66180    0.77350   1.00
O2       0.16180    0.72650    0.77350   1.00
O2       0.22650    0.72650    0.83820   1.00
O2       0.33820    0.77350    0.77350   1.00
O2       0.27350    0.83820    0.77350   1.00
O2       0.27350    0.77350    0.83820   1.00
C1       0.25000    0.75000    0.64480   1.00
C1       0.25000    0.64480    0.75000   1.00
C1       0.35520    0.75000    0.75000   1.00
C1       0.14480    0.75000    0.75000   1.00
C1       0.25000    0.85520    0.75000   1.00
C1       0.25000    0.75000    0.85520   1.00
O1       0.91500    0.91500    0.91500   1.00
Zn1      0.88220    0.94780    0.94780   1.00
Zn1      0.94780    0.88220    0.94780   1.00
Zn1      0.94780    0.94780    0.88220   1.00
Zn1      0.88220    0.88220    0.88220   1.00
O2       0.89150    0.93850    1.00320   1.00
O2       0.89150    1.00320    0.93850   1.00
O2       0.82680    0.93850    0.93850   1.00
O2       0.93850    0.89150    1.00320   1.00
O2       1.00320    0.89150    0.93850   1.00
O2       0.93850    0.82680    0.93850   1.00
O2       0.93850    1.00320    0.89150   1.00
O2       1.00320    0.93850    0.89150   1.00
O2       0.93850    0.93850    0.82680   1.00
O2       0.82680    0.89150    0.89150   1.00
O2       0.89150    0.82680    0.89150   1.00
O2       0.89150    0.89150    0.82680   1.00
C1       0.91500    0.91500    1.02020   1.00
C1       0.91500    1.02020    0.91500   1.00
C1       0.80980    0.91500    0.91500   1.00
C1       1.02020    0.91500    0.91500   1.00
C1       0.91500    0.80980    0.91500   1.00
C1       0.91500    0.91500    0.80980   1.00
O1       0.41500    0.41500    0.91500   1.00
Zn1      0.38220    0.44780    0.94780   1.00
Zn1      0.44780    0.38220    0.94780   1.00
Zn1      0.44780    0.44780    0.88220   1.00
Zn1      0.38220    0.38220    0.88220   1.00
O2       0.39150    0.43850    1.00320   1.00
O2       0.39150    0.50320    0.93850   1.00
O2       0.32680    0.43850    0.93850   1.00
O2       0.43850    0.39150    1.00320   1.00
O2       0.50320    0.39150    0.93850   1.00
O2       0.43850    0.32680    0.93850   1.00
O2       0.43850    0.50320    0.89150   1.00
O2       0.50320    0.43850    0.89150   1.00
O2       0.43850    0.43850    0.82680   1.00
O2       0.32680    0.39150    0.89150   1.00
O2       0.39150    0.32680    0.89150   1.00
O2       0.39150    0.39150    0.82680   1.00
C1       0.41500    0.41500    1.02020   1.00
C1       0.41500    0.52020    0.91500   1.00
C1       0.30980    0.41500    0.91500   1.00
C1       0.52020    0.41500    0.91500   1.00
C1       0.41500    0.30980    0.91500   1.00
C1       0.41500    0.41500    0.80980   1.00
O1       0.41500    0.91500    0.41500   1.00
Zn1      0.38220    0.94780    0.44780   1.00
Zn1      0.44780    0.88220    0.44780   1.00
Zn1      0.44780    0.94780    0.38220   1.00
Zn1      0.38220    0.88220    0.38220   1.00
O2       0.39150    0.93850    0.50320   1.00
O2       0.39150    1.00320    0.43850   1.00
O2       0.32680    0.93850    0.43850   1.00
O2       0.43850    0.89150    0.50320   1.00
O2       0.50320    0.89150    0.43850   1.00
O2       0.43850    0.82680    0.43850   1.00
O2       0.43850    1.00320    0.39150   1.00
O2       0.50320    0.93850    0.39150   1.00
O2       0.43850    0.93850    0.32680   1.00
O2       0.32680    0.89150    0.39150   1.00
O2       0.39150    0.82680    0.39150   1.00
O2       0.39150    0.89150    0.32680   1.00
C1       0.41500    0.91500    0.52020   1.00
C1       0.41500    1.02020    0.41500   1.00
C1       0.30980    0.91500    0.41500   1.00
C1       0.52020    0.91500    0.41500   1.00
C1       0.41500    0.80980    0.41500   1.00
C1       0.41500    0.91500    0.30980   1.00
O1       0.91500    0.41500    0.41500   1.00
Zn1      0.88220    0.44780    0.44780   1.00
Zn1      0.94780    0.38220    0.44780   1.00
Zn1      0.94780    0.44780    0.38220   1.00
Zn1      0.88220    0.38220    0.38220   1.00
O2       0.89150    0.43850    0.50320   1.00
O2       0.89150    0.50320    0.43850   1.00
O2       0.82680    0.43850    0.43850   1.00
O2       0.93850    0.39150    0.50320   1.00
O2       1.00320    0.39150    0.43850   1.00
O2       0.93850    0.32680    0.43850   1.00
O2       0.93850    0.50320    0.39150   1.00
O2       1.00320    0.43850    0.39150   1.00
O2       0.93850    0.43850    0.32680   1.00
O2       0.82680    0.39150    0.39150   1.00
O2       0.89150    0.32680    0.39150   1.00
O2       0.89150    0.39150    0.32680   1.00
C1       0.91500    0.41500    0.52020   1.00
C1       0.91500    0.52020    0.41500   1.00
C1       0.80980    0.41500    0.41500   1.00
C1       1.02020    0.41500    0.41500   1.00
C1       0.91500    0.30980    0.41500   1.00
C1       0.91500    0.41500    0.30980   1.00
O1       0.41500    0.41500    0.41500   1.00
Zn1      0.44780    0.38220    0.38220   1.00
Zn1      0.38220    0.44780    0.38220   1.00
Zn1      0.38220    0.38220    0.44780   1.00
Zn1      0.44780    0.44780    0.44780   1.00
O2       0.43850    0.39150    0.32680   1.00
O2       0.43850    0.32680    0.39150   1.00
O2       0.50320    0.39150    0.39150   1.00
O2       0.39150    0.43850    0.32680   1.00
O2       0.32680    0.43850    0.39150   1.00
O2       0.39150    0.50320    0.39150   1.00
O2       0.39150    0.32680    0.43850   1.00
O2       0.32680    0.39150    0.43850   1.00
O2       0.39150    0.39150    0.50320   1.00
O2       0.50320    0.43850    0.43850   1.00
O2       0.43850    0.50320    0.43850   1.00
O2       0.43850    0.43850    0.50320   1.00
C1       0.41500    0.41500    0.30980   1.00
C1       0.41500    0.30980    0.41500   1.00
C1       0.52020    0.41500    0.41500   1.00
C1       0.30980    0.41500    0.41500   1.00
C1       0.41500    0.52020    0.41500   1.00
C1       0.41500    0.41500    0.52020   1.00
O1       0.91500    0.91500    0.41500   1.00
Zn1      0.94780    0.88220    0.38220   1.00
Zn1      0.88220    0.94780    0.38220   1.00
Zn1      0.88220    0.88220    0.44780   1.00
Zn1      0.94780    0.94780    0.44780   1.00
O2       0.93850    0.89150    0.32680   1.00
O2       0.93850    0.82680    0.39150   1.00
O2       1.00320    0.89150    0.39150   1.00
O2       0.89150    0.93850    0.32680   1.00
O2       0.82680    0.93850    0.39150   1.00
O2       0.89150    1.00320    0.39150   1.00
O2       0.89150    0.82680    0.43850   1.00
O2       0.82680    0.89150    0.43850   1.00
O2       0.89150    0.89150    0.50320   1.00
O2       1.00320    0.93850    0.43850   1.00
O2       0.93850    1.00320    0.43850   1.00
O2       0.93850    0.93850    0.50320   1.00
C1       0.91500    0.91500    0.30980   1.00
C1       0.91500    0.80980    0.41500   1.00
C1       1.02020    0.91500    0.41500   1.00
C1       0.80980    0.91500    0.41500   1.00
C1       0.91500    1.02020    0.41500   1.00
C1       0.91500    0.91500    0.52020   1.00
O1       0.91500    0.41500    0.91500   1.00
Zn1      0.94780    0.38220    0.88220   1.00
Zn1      0.88220    0.44780    0.88220   1.00
Zn1      0.88220    0.38220    0.94780   1.00
Zn1      0.94780    0.44780    0.94780   1.00
O2       0.93850    0.39150    0.82680   1.00
O2       0.93850    0.32680    0.89150   1.00
O2       1.00320    0.39150    0.89150   1.00
O2       0.89150    0.43850    0.82680   1.00
O2       0.82680    0.43850    0.89150   1.00
O2       0.89150    0.50320    0.89150   1.00
O2       0.89150    0.32680    0.93850   1.00
O2       0.82680    0.39150    0.93850   1.00
O2       0.89150    0.39150    1.00320   1.00
O2       1.00320    0.43850    0.93850   1.00
O2       0.93850    0.50320    0.93850   1.00
O2       0.93850    0.43850    1.00320   1.00
C1       0.91500    0.41500    0.80980   1.00
C1       0.91500    0.30980    0.91500   1.00
C1       1.02020    0.41500    0.91500   1.00
C1       0.80980    0.41500    0.91500   1.00
C1       0.91500    0.52020    0.91500   1.00
C1       0.91500    0.41500    1.02020   1.00
O1       0.41500    0.91500    0.91500   1.00
Zn1      0.44780    0.88220    0.88220   1.00
Zn1      0.38220    0.94780    0.88220   1.00
Zn1      0.38220    0.88220    0.94780   1.00
Zn1      0.44780    0.94780    0.94780   1.00
O2       0.43850    0.89150    0.82680   1.00
O2       0.43850    0.82680    0.89150   1.00
O2       0.50320    0.89150    0.89150   1.00
O2       0.39150    0.93850    0.82680   1.00
O2       0.32680    0.93850    0.89150   1.00
O2       0.39150    1.00320    0.89150   1.00
O2       0.39150    0.82680    0.93850   1.00
O2       0.32680    0.89150    0.93850   1.00
O2       0.39150    0.89150    1.00320   1.00
O2       0.50320    0.93850    0.93850   1.00
O2       0.43850    1.00320    0.93850   1.00
O2       0.43850    0.93850    1.00320   1.00
C1       0.41500    0.91500    0.80980   1.00
C1       0.41500    0.80980    0.91500   1.00
C1       0.52020    0.91500    0.91500   1.00
C1       0.30980    0.91500    0.91500   1.00
C1       0.41500    1.02020    0.91500   1.00
C1       0.41500    0.91500    1.02020   1.00
C4       0.74980    0.75075    1.02067   1.00
C4       0.75020    0.74925    0.97933   1.00
C3       0.78281    0.76340    1.04244   1.00
C3       0.78511    0.75481    0.95756   1.00
C4       0.71586    0.73913    1.04150   1.00
C4       0.71500    0.74233    0.95850   1.00
C2       0.75061    0.75015    1.10352   1.00
C2       0.75060    0.75018    0.89648   1.00
C3       0.78314    0.76268    1.08310   1.00
C3       0.78504    0.75559    0.91690   1.00
C3       0.71713    0.73901    1.08306   1.00
C3       0.71604    0.74308    0.91694   1.00
H1       0.80867    0.77497    1.02888   1.00
H1       0.81329    0.75772    0.97112   1.00
C5       0.68143    0.72853    1.02065   1.00
C5       0.67989    0.73430    0.97935   1.00
H1       0.80883    0.77219    1.09886   1.00
H1       0.81204    0.76021    0.90114   1.00
H1       0.69226    0.73093    1.10053   1.00
H1       0.69046    0.73763    0.89947   1.00
C6       0.64724    0.70976    1.04234   1.00
C6       0.64089    0.73345    0.95766   1.00
H2       0.63251    0.68786    1.02358   1.00
H2       0.65709    0.69196    1.06737   1.00
C6       0.61850    0.74079    1.05724   1.00
H2       0.61718    0.74504    0.97642   1.00
H2       0.64052    0.75379    0.93263   1.00
C6       0.63152    0.69220    0.94276   1.00
H2       0.60716    0.75881    1.03274   1.00
C6       0.58429    0.72158    1.07832   1.00
H2       0.63369    0.76106    1.07760   1.00
C6       0.59230    0.69172    0.92168   1.00
H2       0.65482    0.68224    0.92240   1.00
H2       0.63072    0.67093    0.96726   1.00
H2       0.56822    0.70186    1.05822   1.00
H2       0.59477    0.70448    1.10380   1.00
H2       0.56378    0.74431    1.08898   1.00
H2       0.56851    0.70076    0.94178   1.00
H2       0.59282    0.71177    0.89620   1.00
H2       0.58590    0.66179    0.91102   1.00
C4       0.75075    1.02067    0.74980   1.00
C4       0.74925    0.97933    0.75020   1.00
C3       0.76340    1.04244    0.78281   1.00
C3       0.75481    0.95756    0.78511   1.00
C4       0.73913    1.04150    0.71586   1.00
C4       0.74233    0.95850    0.71500   1.00
C2       0.75015    1.10352    0.75061   1.00
C2       0.75018    0.89648    0.75060   1.00
C3       0.76268    1.08310    0.78314   1.00
C3       0.75559    0.91690    0.78504   1.00
C3       0.73901    1.08306    0.71713   1.00
C3       0.74308    0.91694    0.71604   1.00
H1       0.77497    1.02888    0.80867   1.00
H1       0.75772    0.97112    0.81329   1.00
C5       0.72853    1.02065    0.68143   1.00
C5       0.73430    0.97935    0.67989   1.00
H1       0.77219    1.09886    0.80883   1.00
H1       0.76021    0.90114    0.81204   1.00
H1       0.73093    1.10053    0.69226   1.00
H1       0.73763    0.89947    0.69046   1.00
C6       0.70976    1.04234    0.64724   1.00
C6       0.73345    0.95766    0.64089   1.00
H2       0.68786    1.02358    0.63251   1.00
H2       0.69196    1.06737    0.65709   1.00
C6       0.74079    1.05724    0.61850   1.00
H2       0.74504    0.97642    0.61718   1.00
H2       0.75379    0.93263    0.64052   1.00
C6       0.69220    0.94276    0.63152   1.00
H2       0.75881    1.03274    0.60716   1.00
C6       0.72158    1.07832    0.58429   1.00
H2       0.76106    1.07760    0.63369   1.00
C6       0.69172    0.92168    0.59230   1.00
H2       0.68224    0.92240    0.65482   1.00
H2       0.67093    0.96726    0.63072   1.00
H2       0.70186    1.05822    0.56822   1.00
H2       0.70448    1.10380    0.59477   1.00
H2       0.74431    1.08898    0.56378   1.00
H2       0.70076    0.94178    0.56851   1.00
H2       0.71177    0.89620    0.59282   1.00
H2       0.66179    0.91102    0.58590   1.00
C4       0.47933    0.74980    0.74925   1.00
C4       0.52067    0.75020    0.75075   1.00
C3       0.45756    0.78281    0.73660   1.00
C3       0.54244    0.78511    0.74519   1.00
C4       0.45850    0.71586    0.76087   1.00
C4       0.54150    0.71500    0.75767   1.00
C2       0.39648    0.75061    0.74985   1.00
C2       0.60352    0.75060    0.74982   1.00
C3       0.41690    0.78314    0.73732   1.00
C3       0.58310    0.78504    0.74441   1.00
C3       0.41694    0.71713    0.76099   1.00
C3       0.58306    0.71604    0.75692   1.00
H1       0.47112    0.80867    0.72503   1.00
H1       0.52888    0.81329    0.74228   1.00
C5       0.47935    0.68143    0.77147   1.00
C5       0.52065    0.67989    0.76570   1.00
H1       0.40114    0.80883    0.72781   1.00
H1       0.59886    0.81204    0.73979   1.00
H1       0.39947    0.69226    0.76907   1.00
H1       0.60053    0.69046    0.76237   1.00
C6       0.45766    0.64724    0.79024   1.00
C6       0.54234    0.64089    0.76655   1.00
H2       0.47642    0.63251    0.81214   1.00
H2       0.43263    0.65709    0.80804   1.00
C6       0.44276    0.61850    0.75921   1.00
H2       0.52358    0.61718    0.75496   1.00
H2       0.56737    0.64052    0.74621   1.00
C6       0.55724    0.63152    0.80780   1.00
H2       0.46726    0.60716    0.74119   1.00
C6       0.42168    0.58429    0.77842   1.00
H2       0.42240    0.63369    0.73894   1.00
C6       0.57832    0.59230    0.80828   1.00
H2       0.57760    0.65482    0.81776   1.00
H2       0.53274    0.63072    0.82907   1.00
H2       0.44178    0.56822    0.79814   1.00
H2       0.39620    0.59477    0.79552   1.00
H2       0.41102    0.56378    0.75569   1.00
H2       0.55822    0.56851    0.79924   1.00
H2       0.60380    0.59282    0.78823   1.00
H2       0.58898    0.58590    0.83821   1.00
C4       1.02067    0.74980    0.75075   1.00
C4       0.97933    0.75020    0.74925   1.00
C3       1.04244    0.78281    0.76340   1.00
C3       0.95756    0.78511    0.75481   1.00
C4       1.04150    0.71586    0.73913   1.00
C4       0.95850    0.71500    0.74233   1.00
C2       1.10352    0.75061    0.75015   1.00
C2       0.89648    0.75060    0.75018   1.00
C3       1.08310    0.78314    0.76268   1.00
C3       0.91690    0.78504    0.75559   1.00
C3       1.08306    0.71713    0.73901   1.00
C3       0.91694    0.71604    0.74308   1.00
H1       1.02888    0.80867    0.77497   1.00
H1       0.97112    0.81329    0.75772   1.00
C5       1.02065    0.68143    0.72853   1.00
C5       0.97935    0.67989    0.73430   1.00
H1       1.09886    0.80883    0.77219   1.00
H1       0.90114    0.81204    0.76021   1.00
H1       1.10053    0.69226    0.73093   1.00
H1       0.89947    0.69046    0.73763   1.00
C6       1.04234    0.64724    0.70976   1.00
C6       0.95766    0.64089    0.73345   1.00
H2       1.02358    0.63251    0.68786   1.00
H2       1.06737    0.65709    0.69196   1.00
C6       1.05724    0.61850    0.74079   1.00
H2       0.97642    0.61718    0.74504   1.00
H2       0.93263    0.64052    0.75379   1.00
C6       0.94276    0.63152    0.69220   1.00
H2       1.03274    0.60716    0.75881   1.00
C6       1.07832    0.58429    0.72158   1.00
H2       1.07760    0.63369    0.76106   1.00
C6       0.92168    0.59230    0.69172   1.00
H2       0.92240    0.65482    0.68224   1.00
H2       0.96726    0.63072    0.67093   1.00
H2       1.05822    0.56822    0.70186   1.00
H2       1.10380    0.59477    0.70448   1.00
H2       1.08898    0.56378    0.74431   1.00
H2       0.94178    0.56851    0.70076   1.00
H2       0.89620    0.59282    0.71177   1.00
H2       0.91102    0.58590    0.66179   1.00
C4       0.74925    0.47933    0.74980   1.00
C4       0.75075    0.52067    0.75020   1.00
C3       0.73660    0.45756    0.78281   1.00
C3       0.74519    0.54244    0.78511   1.00
C4       0.76087    0.45850    0.71586   1.00
C4       0.75767    0.54150    0.71500   1.00
C2       0.74985    0.39648    0.75061   1.00
C2       0.74982    0.60352    0.75060   1.00
C3       0.73732    0.41690    0.78314   1.00
C3       0.74441    0.58310    0.78504   1.00
C3       0.76099    0.41694    0.71713   1.00
C3       0.75692    0.58306    0.71604   1.00
H1       0.72503    0.47112    0.80867   1.00
H1       0.74228    0.52888    0.81329   1.00
C5       0.77147    0.47935    0.68143   1.00
C5       0.76570    0.52065    0.67989   1.00
H1       0.72781    0.40114    0.80883   1.00
H1       0.73979    0.59886    0.81204   1.00
H1       0.76907    0.39947    0.69226   1.00
H1       0.76237    0.60053    0.69046   1.00
C6       0.79024    0.45766    0.64724   1.00
C6       0.76655    0.54234    0.64089   1.00
H2       0.81214    0.47642    0.63251   1.00
H2       0.80804    0.43263    0.65709   1.00
C6       0.75921    0.44276    0.61850   1.00
H2       0.75496    0.52358    0.61718   1.00
H2       0.74621    0.56737    0.64052   1.00
C6       0.80780    0.55724    0.63152   1.00
H2       0.74119    0.46726    0.60716   1.00
C6       0.77842    0.42168    0.58429   1.00
H2       0.73894    0.42240    0.63369   1.00
C6       0.80828    0.57832    0.59230   1.00
H2       0.81776    0.57760    0.65482   1.00
H2       0.82907    0.53274    0.63072   1.00
H2       0.79814    0.44178    0.56822   1.00
H2       0.79552    0.39620    0.59477   1.00
H2       0.75569    0.41102    0.56378   1.00
H2       0.79924    0.55822    0.56851   1.00
H2       0.78823    0.60380    0.59282   1.00
H2       0.83821    0.58898    0.58590   1.00
C4       0.74980    0.74925    0.47933   1.00
C4       0.75020    0.75075    0.52067   1.00
C3       0.78281    0.73660    0.45756   1.00
C3       0.78511    0.74519    0.54244   1.00
C4       0.71586    0.76087    0.45850   1.00
C4       0.71500    0.75767    0.54150   1.00
C2       0.75061    0.74985    0.39648   1.00
C2       0.75060    0.74982    0.60352   1.00
C3       0.78314    0.73732    0.41690   1.00
C3       0.78504    0.74441    0.58310   1.00
C3       0.71713    0.76099    0.41694   1.00
C3       0.71604    0.75692    0.58306   1.00
H1       0.80867    0.72503    0.47112   1.00
H1       0.81329    0.74228    0.52888   1.00
C5       0.68143    0.77147    0.47935   1.00
C5       0.67989    0.76570    0.52065   1.00
H1       0.80883    0.72781    0.40114   1.00
H1       0.81204    0.73979    0.59886   1.00
H1       0.69226    0.76907    0.39947   1.00
H1       0.69046    0.76237    0.60053   1.00
C6       0.64724    0.79024    0.45766   1.00
C6       0.64089    0.76655    0.54234   1.00
H2       0.63251    0.81214    0.47642   1.00
H2       0.65709    0.80804    0.43263   1.00
C6       0.61850    0.75921    0.44276   1.00
H2       0.61718    0.75496    0.52358   1.00
H2       0.64052    0.74621    0.56737   1.00
C6       0.63152    0.80780    0.55724   1.00
H2       0.60716    0.74119    0.46726   1.00
C6       0.58429    0.77842    0.42168   1.00
H2       0.63369    0.73894    0.42240   1.00
C6       0.59230    0.80828    0.57832   1.00
H2       0.65482    0.81776    0.57760   1.00
H2       0.63072    0.82907    0.53274   1.00
H2       0.56822    0.79814    0.44178   1.00
H2       0.59477    0.79552    0.39620   1.00
H2       0.56378    0.75569    0.41102   1.00
H2       0.56851    0.79924    0.55822   1.00
H2       0.59282    0.78823    0.60380   1.00
H2       0.58590    0.83821    0.58898   1.00
C4       0.24980    0.25075    1.02067   1.00
C4       0.25020    0.24925    0.97933   1.00
C3       0.28281    0.26340    1.04244   1.00
C3       0.28511    0.25481    0.95756   1.00
C4       0.21586    0.23913    1.04150   1.00
C4       0.21500    0.24233    0.95850   1.00
C2       0.25061    0.25015    1.10352   1.00
C2       0.25060    0.25018    0.89648   1.00
C3       0.28314    0.26268    1.08310   1.00
C3       0.28504    0.25559    0.91690   1.00
C3       0.21713    0.23901    1.08306   1.00
C3       0.21604    0.24308    0.91694   1.00
H1       0.30867    0.27497    1.02888   1.00
H1       0.31329    0.25772    0.97112   1.00
C5       0.18143    0.22853    1.02065   1.00
C5       0.17989    0.23430    0.97935   1.00
H1       0.30883    0.27219    1.09886   1.00
H1       0.31204    0.26021    0.90114   1.00
H1       0.19226    0.23093    1.10053   1.00
H1       0.19046    0.23763    0.89947   1.00
C6       0.14724    0.20976    1.04234   1.00
C6       0.14089    0.23345    0.95766   1.00
H2       0.13251    0.18786    1.02358   1.00
H2       0.15709    0.19196    1.06737   1.00
C6       0.11850    0.24079    1.05724   1.00
H2       0.11718    0.24504    0.97642   1.00
H2       0.14052    0.25379    0.93263   1.00
C6       0.13152    0.19220    0.94276   1.00
H2       0.10716    0.25881    1.03274   1.00
C6       0.08429    0.22158    1.07832   1.00
H2       0.13369    0.26106    1.07760   1.00
C6       0.09230    0.19172    0.92168   1.00
H2       0.15482    0.18224    0.92240   1.00
H2       0.13072    0.17093    0.96726   1.00
H2       0.06822    0.20186    1.05822   1.00
H2       0.09477    0.20448    1.10380   1.00
H2       0.06378    0.24431    1.08898   1.00
H2       0.06851    0.20076    0.94178   1.00
H2       0.09282    0.21177    0.89620   1.00
H2       0.08590    0.16179    0.91102   1.00
C4       0.25075    0.52067    0.74980   1.00
C4       0.24925    0.47933    0.75020   1.00
C3       0.26340    0.54244    0.78281   1.00
C3       0.25481    0.45756    0.78511   1.00
C4       0.23913    0.54150    0.71586   1.00
C4       0.24233    0.45850    0.71500   1.00
C2       0.25015    0.60352    0.75061   1.00
C2       0.25018    0.39648    0.75060   1.00
C3       0.26268    0.58310    0.78314   1.00
C3       0.25559    0.41690    0.78504   1.00
C3       0.23901    0.58306    0.71713   1.00
C3       0.24308    0.41694    0.71604   1.00
H1       0.27497    0.52888    0.80867   1.00
H1       0.25772    0.47112    0.81329   1.00
C5       0.22853    0.52065    0.68143   1.00
C5       0.23430    0.47935    0.67989   1.00
H1       0.27219    0.59886    0.80883   1.00
H1       0.26021    0.40114    0.81204   1.00
H1       0.23093    0.60053    0.69226   1.00
H1       0.23763    0.39947    0.69046   1.00
C6       0.20976    0.54234    0.64724   1.00
C6       0.23345    0.45766    0.64089   1.00
H2       0.18786    0.52358    0.63251   1.00
H2       0.19196    0.56737    0.65709   1.00
C6       0.24079    0.55724    0.61850   1.00
H2       0.24504    0.47642    0.61718   1.00
H2       0.25379    0.43263    0.64052   1.00
C6       0.19220    0.44276    0.63152   1.00
H2       0.25881    0.53274    0.60716   1.00
C6       0.22158    0.57832    0.58429   1.00
H2       0.26106    0.57760    0.63369   1.00
C6       0.19172    0.42168    0.59230   1.00
H2       0.18224    0.42240    0.65482   1.00
H2       0.17093    0.46726    0.63072   1.00
H2       0.20186    0.55822    0.56822   1.00
H2       0.20448    0.60380    0.59477   1.00
H2       0.24431    0.58898    0.56378   1.00
H2       0.20076    0.44178    0.56851   1.00
H2       0.21177    0.39620    0.59282   1.00
H2       0.16179    0.41102    0.58590   1.00
C4       -0.02067   0.24980    0.74925   1.00
C4       0.02067    0.25020    0.75075   1.00
C3       -0.04244   0.28281    0.73660   1.00
C3       0.04244    0.28511    0.74519   1.00
C4       -0.04150   0.21586    0.76087   1.00
C4       0.04150    0.21500    0.75767   1.00
C2       -0.10352   0.25061    0.74985   1.00
C2       0.10352    0.25060    0.74982   1.00
C3       -0.08310   0.28314    0.73732   1.00
C3       0.08310    0.28504    0.74441   1.00
C3       -0.08306   0.21713    0.76099   1.00
C3       0.08306    0.21604    0.75692   1.00
H1       -0.02888   0.30867    0.72503   1.00
H1       0.02888    0.31329    0.74228   1.00
C5       -0.02065   0.18143    0.77147   1.00
C5       0.02065    0.17989    0.76570   1.00
H1       -0.09886   0.30883    0.72781   1.00
H1       0.09886    0.31204    0.73979   1.00
H1       -0.10053   0.19226    0.76907   1.00
H1       0.10053    0.19046    0.76237   1.00
C6       -0.04234   0.14724    0.79024   1.00
C6       0.04234    0.14089    0.76655   1.00
H2       -0.02358   0.13251    0.81214   1.00
H2       -0.06737   0.15709    0.80804   1.00
C6       -0.05724   0.11850    0.75921   1.00
H2       0.02358    0.11718    0.75496   1.00
H2       0.06737    0.14052    0.74621   1.00
C6       0.05724    0.13152    0.80780   1.00
H2       -0.03274   0.10716    0.74119   1.00
C6       -0.07832   0.08429    0.77842   1.00
H2       -0.07760   0.13369    0.73894   1.00
C6       0.07832    0.09230    0.80828   1.00
H2       0.07760    0.15482    0.81776   1.00
H2       0.03274    0.13072    0.82907   1.00
H2       -0.05822   0.06822    0.79814   1.00
H2       -0.10380   0.09477    0.79552   1.00
H2       -0.08898   0.06378    0.75569   1.00
H2       0.05822    0.06851    0.79924   1.00
H2       0.10380    0.09282    0.78823   1.00
H2       0.08898    0.08590    0.83821   1.00
C4       0.52067    0.24980    0.75075   1.00
C4       0.47933    0.25020    0.74925   1.00
C3       0.54244    0.28281    0.76340   1.00
C3       0.45756    0.28511    0.75481   1.00
C4       0.54150    0.21586    0.73913   1.00
C4       0.45850    0.21500    0.74233   1.00
C2       0.60352    0.25061    0.75015   1.00
C2       0.39648    0.25060    0.75018   1.00
C3       0.58310    0.28314    0.76268   1.00
C3       0.41690    0.28504    0.75559   1.00
C3       0.58306    0.21713    0.73901   1.00
C3       0.41694    0.21604    0.74308   1.00
H1       0.52888    0.30867    0.77497   1.00
H1       0.47112    0.31329    0.75772   1.00
C5       0.52065    0.18143    0.72853   1.00
C5       0.47935    0.17989    0.73430   1.00
H1       0.59886    0.30883    0.77219   1.00
H1       0.40114    0.31204    0.76021   1.00
H1       0.60053    0.19226    0.73093   1.00
H1       0.39947    0.19046    0.73763   1.00
C6       0.54234    0.14724    0.70976   1.00
C6       0.45766    0.14089    0.73345   1.00
H2       0.52358    0.13251    0.68786   1.00
H2       0.56737    0.15709    0.69196   1.00
C6       0.55724    0.11850    0.74079   1.00
H2       0.47642    0.11718    0.74504   1.00
H2       0.43263    0.14052    0.75379   1.00
C6       0.44276    0.13152    0.69220   1.00
H2       0.53274    0.10716    0.75881   1.00
C6       0.57832    0.08429    0.72158   1.00
H2       0.57760    0.13369    0.76106   1.00
C6       0.42168    0.09230    0.69172   1.00
H2       0.42240    0.15482    0.68224   1.00
H2       0.46726    0.13072    0.67093   1.00
H2       0.55822    0.06822    0.70186   1.00
H2       0.60380    0.09477    0.70448   1.00
H2       0.58898    0.06378    0.74431   1.00
H2       0.44178    0.06851    0.70076   1.00
H2       0.39620    0.09282    0.71177   1.00
H2       0.41102    0.08590    0.66179   1.00
C4       0.24925    -0.02067   0.74980   1.00
C4       0.25075    0.02067    0.75020   1.00
C3       0.23660    -0.04244   0.78281   1.00
C3       0.24519    0.04244    0.78511   1.00
C4       0.26087    -0.04150   0.71586   1.00
C4       0.25767    0.04150    0.71500   1.00
C2       0.24985    -0.10352   0.75061   1.00
C2       0.24982    0.10352    0.75060   1.00
C3       0.23732    -0.08310   0.78314   1.00
C3       0.24441    0.08310    0.78504   1.00
C3       0.26099    -0.08306   0.71713   1.00
C3       0.25692    0.08306    0.71604   1.00
H1       0.22503    -0.02888   0.80867   1.00
H1       0.24228    0.02888    0.81329   1.00
C5       0.27147    -0.02065   0.68143   1.00
C5       0.26570    0.02065    0.67989   1.00
H1       0.22781    -0.09886   0.80883   1.00
H1       0.23979    0.09886    0.81204   1.00
H1       0.26907    -0.10053   0.69226   1.00
H1       0.26237    0.10053    0.69046   1.00
C6       0.29024    -0.04234   0.64724   1.00
C6       0.26655    0.04234    0.64089   1.00
H2       0.31214    -0.02358   0.63251   1.00
H2       0.30804    -0.06737   0.65709   1.00
C6       0.25921    -0.05724   0.61850   1.00
H2       0.25496    0.02358    0.61718   1.00
H2       0.24621    0.06737    0.64052   1.00
C6       0.30780    0.05724    0.63152   1.00
H2       0.24119    -0.03274   0.60716   1.00
C6       0.27842    -0.07832   0.58429   1.00
H2       0.23894    -0.07760   0.63369   1.00
C6       0.30828    0.07832    0.59230   1.00
H2       0.31776    0.07760    0.65482   1.00
H2       0.32907    0.03274    0.63072   1.00
H2       0.29814    -0.05822   0.56822   1.00
H2       0.29552    -0.10380   0.59477   1.00
H2       0.25569    -0.08898   0.56378   1.00
H2       0.29924    0.05822    0.56851   1.00
H2       0.28823    0.10380    0.59282   1.00
H2       0.33821    0.08898    0.58590   1.00
C4       0.24980    0.24925    0.47933   1.00
C4       0.25020    0.25075    0.52067   1.00
C3       0.28281    0.23660    0.45756   1.00
C3       0.28511    0.24519    0.54244   1.00
C4       0.21586    0.26087    0.45850   1.00
C4       0.21500    0.25767    0.54150   1.00
C2       0.25061    0.24985    0.39648   1.00
C2       0.25060    0.24982    0.60352   1.00
C3       0.28314    0.23732    0.41690   1.00
C3       0.28504    0.24441    0.58310   1.00
C3       0.21713    0.26099    0.41694   1.00
C3       0.21604    0.25692    0.58306   1.00
H1       0.30867    0.22503    0.47112   1.00
H1       0.31329    0.24228    0.52888   1.00
C5       0.18143    0.27147    0.47935   1.00
C5       0.17989    0.26570    0.52065   1.00
H1       0.30883    0.22781    0.40114   1.00
H1       0.31204    0.23979    0.59886   1.00
H1       0.19226    0.26907    0.39947   1.00
H1       0.19046    0.26237    0.60053   1.00
C6       0.14724    0.29024    0.45766   1.00
C6       0.14089    0.26655    0.54234   1.00
H2       0.13251    0.31214    0.47642   1.00
H2       0.15709    0.30804    0.43263   1.00
C6       0.11850    0.25921    0.44276   1.00
H2       0.11718    0.25496    0.52358   1.00
H2       0.14052    0.24621    0.56737   1.00
C6       0.13152    0.30780    0.55724   1.00
H2       0.10716    0.24119    0.46726   1.00
C6       0.08429    0.27842    0.42168   1.00
H2       0.13369    0.23894    0.42240   1.00
C6       0.09230    0.30828    0.57832   1.00
H2       0.15482    0.31776    0.57760   1.00
H2       0.13072    0.32907    0.53274   1.00
H2       0.06822    0.29814    0.44178   1.00
H2       0.09477    0.29552    0.39620   1.00
H2       0.06378    0.25569    0.41102   1.00
H2       0.06851    0.29924    0.55822   1.00
H2       0.09282    0.28823    0.60380   1.00
H2       0.08590    0.33821    0.58898   1.00
C4       0.24980    0.75075    0.52067   1.00
C4       0.25020    0.74925    0.47933   1.00
C3       0.28281    0.76340    0.54244   1.00
C3       0.28511    0.75481    0.45756   1.00
C4       0.21586    0.73913    0.54150   1.00
C4       0.21500    0.74233    0.45850   1.00
C2       0.25061    0.75015    0.60352   1.00
C2       0.25060    0.75018    0.39648   1.00
C3       0.28314    0.76268    0.58310   1.00
C3       0.28504    0.75559    0.41690   1.00
C3       0.21713    0.73901    0.58306   1.00
C3       0.21604    0.74308    0.41694   1.00
H1       0.30867    0.77497    0.52888   1.00
H1       0.31329    0.75772    0.47112   1.00
C5       0.18143    0.72853    0.52065   1.00
C5       0.17989    0.73430    0.47935   1.00
H1       0.30883    0.77219    0.59886   1.00
H1       0.31204    0.76021    0.40114   1.00
H1       0.19226    0.73093    0.60053   1.00
H1       0.19046    0.73763    0.39947   1.00
C6       0.14724    0.70976    0.54234   1.00
C6       0.14089    0.73345    0.45766   1.00
H2       0.13251    0.68786    0.52358   1.00
H2       0.15709    0.69196    0.56737   1.00
C6       0.11850    0.74079    0.55724   1.00
H2       0.11718    0.74504    0.47642   1.00
H2       0.14052    0.75379    0.43263   1.00
C6       0.13152    0.69220    0.44276   1.00
H2       0.10716    0.75881    0.53274   1.00
C6       0.08429    0.72158    0.57832   1.00
H2       0.13369    0.76106    0.57760   1.00
C6       0.09230    0.69172    0.42168   1.00
H2       0.15482    0.68224    0.42240   1.00
H2       0.13072    0.67093    0.46726   1.00
H2       0.06822    0.70186    0.55822   1.00
H2       0.09477    0.70448    0.60380   1.00
H2       0.06378    0.74431    0.58898   1.00
H2       0.06851    0.70076    0.44178   1.00
H2       0.09282    0.71177    0.39620   1.00
H2       0.08590    0.66179    0.41102   1.00
C4       0.25075    1.02067    0.24980   1.00
C4       0.24925    0.97933    0.25020   1.00
C3       0.26340    1.04244    0.28281   1.00
C3       0.25481    0.95756    0.28511   1.00
C4       0.23913    1.04150    0.21586   1.00
C4       0.24233    0.95850    0.21500   1.00
C2       0.25015    1.10352    0.25061   1.00
C2       0.25018    0.89648    0.25060   1.00
C3       0.26268    1.08310    0.28314   1.00
C3       0.25559    0.91690    0.28504   1.00
C3       0.23901    1.08306    0.21713   1.00
C3       0.24308    0.91694    0.21604   1.00
H1       0.27497    1.02888    0.30867   1.00
H1       0.25772    0.97112    0.31329   1.00
C5       0.22853    1.02065    0.18143   1.00
C5       0.23430    0.97935    0.17989   1.00
H1       0.27219    1.09886    0.30883   1.00
H1       0.26021    0.90114    0.31204   1.00
H1       0.23093    1.10053    0.19226   1.00
H1       0.23763    0.89947    0.19046   1.00
C6       0.20976    1.04234    0.14724   1.00
C6       0.23345    0.95766    0.14089   1.00
H2       0.18786    1.02358    0.13251   1.00
H2       0.19196    1.06737    0.15709   1.00
C6       0.24079    1.05724    0.11850   1.00
H2       0.24504    0.97642    0.11718   1.00
H2       0.25379    0.93263    0.14052   1.00
C6       0.19220    0.94276    0.13152   1.00
H2       0.25881    1.03274    0.10716   1.00
C6       0.22158    1.07832    0.08429   1.00
H2       0.26106    1.07760    0.13369   1.00
C6       0.19172    0.92168    0.09230   1.00
H2       0.18224    0.92240    0.15482   1.00
H2       0.17093    0.96726    0.13072   1.00
H2       0.20186    1.05822    0.06822   1.00
H2       0.20448    1.10380    0.09477   1.00
H2       0.24431    1.08898    0.06378   1.00
H2       0.20076    0.94178    0.06851   1.00
H2       0.21177    0.89620    0.09282   1.00
H2       0.16179    0.91102    0.08590   1.00
C4       -0.02067   0.74980    0.24925   1.00
C4       0.02067    0.75020    0.25075   1.00
C3       -0.04244   0.78281    0.23660   1.00
C3       0.04244    0.78511    0.24519   1.00
C4       -0.04150   0.71586    0.26087   1.00
C4       0.04150    0.71500    0.25767   1.00
C2       -0.10352   0.75061    0.24985   1.00
C2       0.10352    0.75060    0.24982   1.00
C3       -0.08310   0.78314    0.23732   1.00
C3       0.08310    0.78504    0.24441   1.00
C3       -0.08306   0.71713    0.26099   1.00
C3       0.08306    0.71604    0.25692   1.00
H1       -0.02888   0.80867    0.22503   1.00
H1       0.02888    0.81329    0.24228   1.00
C5       -0.02065   0.68143    0.27147   1.00
C5       0.02065    0.67989    0.26570   1.00
H1       -0.09886   0.80883    0.22781   1.00
H1       0.09886    0.81204    0.23979   1.00
H1       -0.10053   0.69226    0.26907   1.00
H1       0.10053    0.69046    0.26237   1.00
C6       -0.04234   0.64724    0.29024   1.00
C6       0.04234    0.64089    0.26655   1.00
H2       -0.02358   0.63251    0.31214   1.00
H2       -0.06737   0.65709    0.30804   1.00
C6       -0.05724   0.61850    0.25921   1.00
H2       0.02358    0.61718    0.25496   1.00
H2       0.06737    0.64052    0.24621   1.00
C6       0.05724    0.63152    0.30780   1.00
H2       -0.03274   0.60716    0.24119   1.00
C6       -0.07832   0.58429    0.27842   1.00
H2       -0.07760   0.63369    0.23894   1.00
C6       0.07832    0.59230    0.30828   1.00
H2       0.07760    0.65482    0.31776   1.00
H2       0.03274    0.63072    0.32907   1.00
H2       -0.05822   0.56822    0.29814   1.00
H2       -0.10380   0.59477    0.29552   1.00
H2       -0.08898   0.56378    0.25569   1.00
H2       0.05822    0.56851    0.29924   1.00
H2       0.10380    0.59282    0.28823   1.00
H2       0.08898    0.58590    0.33821   1.00
C4       0.52067    0.74980    0.25075   1.00
C4       0.47933    0.75020    0.24925   1.00
C3       0.54244    0.78281    0.26340   1.00
C3       0.45756    0.78511    0.25481   1.00
C4       0.54150    0.71586    0.23913   1.00
C4       0.45850    0.71500    0.24233   1.00
C2       0.60352    0.75061    0.25015   1.00
C2       0.39648    0.75060    0.25018   1.00
C3       0.58310    0.78314    0.26268   1.00
C3       0.41690    0.78504    0.25559   1.00
C3       0.58306    0.71713    0.23901   1.00
C3       0.41694    0.71604    0.24308   1.00
H1       0.52888    0.80867    0.27497   1.00
H1       0.47112    0.81329    0.25772   1.00
C5       0.52065    0.68143    0.22853   1.00
C5       0.47935    0.67989    0.23430   1.00
H1       0.59886    0.80883    0.27219   1.00
H1       0.40114    0.81204    0.26021   1.00
H1       0.60053    0.69226    0.23093   1.00
H1       0.39947    0.69046    0.23763   1.00
C6       0.54234    0.64724    0.20976   1.00
C6       0.45766    0.64089    0.23345   1.00
H2       0.52358    0.63251    0.18786   1.00
H2       0.56737    0.65709    0.19196   1.00
C6       0.55724    0.61850    0.24079   1.00
H2       0.47642    0.61718    0.24504   1.00
H2       0.43263    0.64052    0.25379   1.00
C6       0.44276    0.63152    0.19220   1.00
H2       0.53274    0.60716    0.25881   1.00
C6       0.57832    0.58429    0.22158   1.00
H2       0.57760    0.63369    0.26106   1.00
C6       0.42168    0.59230    0.19172   1.00
H2       0.42240    0.65482    0.18224   1.00
H2       0.46726    0.63072    0.17093   1.00
H2       0.55822    0.56822    0.20186   1.00
H2       0.60380    0.59477    0.20448   1.00
H2       0.58898    0.56378    0.24431   1.00
H2       0.44178    0.56851    0.20076   1.00
H2       0.39620    0.59282    0.21177   1.00
H2       0.41102    0.58590    0.16179   1.00
C4       0.24925    0.47933    0.24980   1.00
C4       0.25075    0.52067    0.25020   1.00
C3       0.23660    0.45756    0.28281   1.00
C3       0.24519    0.54244    0.28511   1.00
C4       0.26087    0.45850    0.21586   1.00
C4       0.25767    0.54150    0.21500   1.00
C2       0.24985    0.39648    0.25061   1.00
C2       0.24982    0.60352    0.25060   1.00
C3       0.23732    0.41690    0.28314   1.00
C3       0.24441    0.58310    0.28504   1.00
C3       0.26099    0.41694    0.21713   1.00
C3       0.25692    0.58306    0.21604   1.00
H1       0.22503    0.47112    0.30867   1.00
H1       0.24228    0.52888    0.31329   1.00
C5       0.27147    0.47935    0.18143   1.00
C5       0.26570    0.52065    0.17989   1.00
H1       0.22781    0.40114    0.30883   1.00
H1       0.23979    0.59886    0.31204   1.00
H1       0.26907    0.39947    0.19226   1.00
H1       0.26237    0.60053    0.19046   1.00
C6       0.29024    0.45766    0.14724   1.00
C6       0.26655    0.54234    0.14089   1.00
H2       0.31214    0.47642    0.13251   1.00
H2       0.30804    0.43263    0.15709   1.00
C6       0.25921    0.44276    0.11850   1.00
H2       0.25496    0.52358    0.11718   1.00
H2       0.24621    0.56737    0.14052   1.00
C6       0.30780    0.55724    0.13152   1.00
H2       0.24119    0.46726    0.10716   1.00
C6       0.27842    0.42168    0.08429   1.00
H2       0.23894    0.42240    0.13369   1.00
C6       0.30828    0.57832    0.09230   1.00
H2       0.31776    0.57760    0.15482   1.00
H2       0.32907    0.53274    0.13072   1.00
H2       0.29814    0.44178    0.06822   1.00
H2       0.29552    0.39620    0.09477   1.00
H2       0.25569    0.41102    0.06378   1.00
H2       0.29924    0.55822    0.06851   1.00
H2       0.28823    0.60380    0.09282   1.00
H2       0.33821    0.58898    0.08590   1.00
C4       0.24980    0.74925    -0.02067   1.00
C4       0.25020    0.75075    0.02067   1.00
C3       0.28281    0.73660    -0.04244   1.00
C3       0.28511    0.74519    0.04244   1.00
C4       0.21586    0.76087    -0.04150   1.00
C4       0.21500    0.75767    0.04150   1.00
C2       0.25061    0.74985    -0.10352   1.00
C2       0.25060    0.74982    0.10352   1.00
C3       0.28314    0.73732    -0.08310   1.00
C3       0.28504    0.74441    0.08310   1.00
C3       0.21713    0.76099    -0.08306   1.00
C3       0.21604    0.75692    0.08306   1.00
H1       0.30867    0.72503    -0.02888   1.00
H1       0.31329    0.74228    0.02888   1.00
C5       0.18143    0.77147    -0.02065   1.00
C5       0.17989    0.76570    0.02065   1.00
H1       0.30883    0.72781    -0.09886   1.00
H1       0.31204    0.73979    0.09886   1.00
H1       0.19226    0.76907    -0.10053   1.00
H1       0.19046    0.76237    0.10053   1.00
C6       0.14724    0.79024    -0.04234   1.00
C6       0.14089    0.76655    0.04234   1.00
H2       0.13251    0.81214    -0.02358   1.00
H2       0.15709    0.80804    -0.06737   1.00
C6       0.11850    0.75921    -0.05724   1.00
H2       0.11718    0.75496    0.02358   1.00
H2       0.14052    0.74621    0.06737   1.00
C6       0.13152    0.80780    0.05724   1.00
H2       0.10716    0.74119    -0.03274   1.00
C6       0.08429    0.77842    -0.07832   1.00
H2       0.13369    0.73894    -0.07760   1.00
C6       0.09230    0.80828    0.07832   1.00
H2       0.15482    0.81776    0.07760   1.00
H2       0.13072    0.82907    0.03274   1.00
H2       0.06822    0.79814    -0.05822   1.00
H2       0.09477    0.79552    -0.10380   1.00
H2       0.06378    0.75569    -0.08898   1.00
H2       0.06851    0.79924    0.05822   1.00
H2       0.09282    0.78823    0.10380   1.00
H2       0.08590    0.83821    0.08898   1.00
C4       0.74980    0.25075    0.52067   1.00
C4       0.75020    0.24925    0.47933   1.00
C3       0.78281    0.26340    0.54244   1.00
C3       0.78511    0.25481    0.45756   1.00
C4       0.71586    0.23913    0.54150   1.00
C4       0.71500    0.24233    0.45850   1.00
C2       0.75061    0.25015    0.60352   1.00
C2       0.75060    0.25018    0.39648   1.00
C3       0.78314    0.26268    0.58310   1.00
C3       0.78504    0.25559    0.41690   1.00
C3       0.71713    0.23901    0.58306   1.00
C3       0.71604    0.24308    0.41694   1.00
H1       0.80867    0.27497    0.52888   1.00
H1       0.81329    0.25772    0.47112   1.00
C5       0.68143    0.22853    0.52065   1.00
C5       0.67989    0.23430    0.47935   1.00
H1       0.80883    0.27219    0.59886   1.00
H1       0.81204    0.26021    0.40114   1.00
H1       0.69226    0.23093    0.60053   1.00
H1       0.69046    0.23763    0.39947   1.00
C6       0.64724    0.20976    0.54234   1.00
C6       0.64089    0.23345    0.45766   1.00
H2       0.63251    0.18786    0.52358   1.00
H2       0.65709    0.19196    0.56737   1.00
C6       0.61850    0.24079    0.55724   1.00
H2       0.61718    0.24504    0.47642   1.00
H2       0.64052    0.25379    0.43263   1.00
C6       0.63152    0.19220    0.44276   1.00
H2       0.60716    0.25881    0.53274   1.00
C6       0.58429    0.22158    0.57832   1.00
H2       0.63369    0.26106    0.57760   1.00
C6       0.59230    0.19172    0.42168   1.00
H2       0.65482    0.18224    0.42240   1.00
H2       0.63072    0.17093    0.46726   1.00
H2       0.56822    0.20186    0.55822   1.00
H2       0.59477    0.20448    0.60380   1.00
H2       0.56378    0.24431    0.58898   1.00
H2       0.56851    0.20076    0.44178   1.00
H2       0.59282    0.21177    0.39620   1.00
H2       0.58590    0.16179    0.41102   1.00
C4       0.75075    0.52067    0.24980   1.00
C4       0.74925    0.47933    0.25020   1.00
C3       0.76340    0.54244    0.28281   1.00
C3       0.75481    0.45756    0.28511   1.00
C4       0.73913    0.54150    0.21586   1.00
C4       0.74233    0.45850    0.21500   1.00
C2       0.75015    0.60352    0.25061   1.00
C2       0.75018    0.39648    0.25060   1.00
C3       0.76268    0.58310    0.28314   1.00
C3       0.75559    0.41690    0.28504   1.00
C3       0.73901    0.58306    0.21713   1.00
C3       0.74308    0.41694    0.21604   1.00
H1       0.77497    0.52888    0.30867   1.00
H1       0.75772    0.47112    0.31329   1.00
C5       0.72853    0.52065    0.18143   1.00
C5       0.73430    0.47935    0.17989   1.00
H1       0.77219    0.59886    0.30883   1.00
H1       0.76021    0.40114    0.31204   1.00
H1       0.73093    0.60053    0.19226   1.00
H1       0.73763    0.39947    0.19046   1.00
C6       0.70976    0.54234    0.14724   1.00
C6       0.73345    0.45766    0.14089   1.00
H2       0.68786    0.52358    0.13251   1.00
H2       0.69196    0.56737    0.15709   1.00
C6       0.74079    0.55724    0.11850   1.00
H2       0.74504    0.47642    0.11718   1.00
H2       0.75379    0.43263    0.14052   1.00
C6       0.69220    0.44276    0.13152   1.00
H2       0.75881    0.53274    0.10716   1.00
C6       0.72158    0.57832    0.08429   1.00
H2       0.76106    0.57760    0.13369   1.00
C6       0.69172    0.42168    0.09230   1.00
H2       0.68224    0.42240    0.15482   1.00
H2       0.67093    0.46726    0.13072   1.00
H2       0.70186    0.55822    0.06822   1.00
H2       0.70448    0.60380    0.09477   1.00
H2       0.74431    0.58898    0.06378   1.00
H2       0.70076    0.44178    0.06851   1.00
H2       0.71177    0.39620    0.09282   1.00
H2       0.66179    0.41102    0.08590   1.00
C4       0.47933    0.24980    0.24925   1.00
C4       0.52067    0.25020    0.25075   1.00
C3       0.45756    0.28281    0.23660   1.00
C3       0.54244    0.28511    0.24519   1.00
C4       0.45850    0.21586    0.26087   1.00
C4       0.54150    0.21500    0.25767   1.00
C2       0.39648    0.25061    0.24985   1.00
C2       0.60352    0.25060    0.24982   1.00
C3       0.41690    0.28314    0.23732   1.00
C3       0.58310    0.28504    0.24441   1.00
C3       0.41694    0.21713    0.26099   1.00
C3       0.58306    0.21604    0.25692   1.00
H1       0.47112    0.30867    0.22503   1.00
H1       0.52888    0.31329    0.24228   1.00
C5       0.47935    0.18143    0.27147   1.00
C5       0.52065    0.17989    0.26570   1.00
H1       0.40114    0.30883    0.22781   1.00
H1       0.59886    0.31204    0.23979   1.00
H1       0.39947    0.19226    0.26907   1.00
H1       0.60053    0.19046    0.26237   1.00
C6       0.45766    0.14724    0.29024   1.00
C6       0.54234    0.14089    0.26655   1.00
H2       0.47642    0.13251    0.31214   1.00
H2       0.43263    0.15709    0.30804   1.00
C6       0.44276    0.11850    0.25921   1.00
H2       0.52358    0.11718    0.25496   1.00
H2       0.56737    0.14052    0.24621   1.00
C6       0.55724    0.13152    0.30780   1.00
H2       0.46726    0.10716    0.24119   1.00
C6       0.42168    0.08429    0.27842   1.00
H2       0.42240    0.13369    0.23894   1.00
C6       0.57832    0.09230    0.30828   1.00
H2       0.57760    0.15482    0.31776   1.00
H2       0.53274    0.13072    0.32907   1.00
H2       0.44178    0.06822    0.29814   1.00
H2       0.39620    0.09477    0.29552   1.00
H2       0.41102    0.06378    0.25569   1.00
H2       0.55822    0.06851    0.29924   1.00
H2       0.60380    0.09282    0.28823   1.00
H2       0.58898    0.08590    0.33821   1.00
C4       1.02067    0.24980    0.25075   1.00
C4       0.97933    0.25020    0.24925   1.00
C3       1.04244    0.28281    0.26340   1.00
C3       0.95756    0.28511    0.25481   1.00
C4       1.04150    0.21586    0.23913   1.00
C4       0.95850    0.21500    0.24233   1.00
C2       1.10352    0.25061    0.25015   1.00
C2       0.89648    0.25060    0.25018   1.00
C3       1.08310    0.28314    0.26268   1.00
C3       0.91690    0.28504    0.25559   1.00
C3       1.08306    0.21713    0.23901   1.00
C3       0.91694    0.21604    0.24308   1.00
H1       1.02888    0.30867    0.27497   1.00
H1       0.97112    0.31329    0.25772   1.00
C5       1.02065    0.18143    0.22853   1.00
C5       0.97935    0.17989    0.23430   1.00
H1       1.09886    0.30883    0.27219   1.00
H1       0.90114    0.31204    0.26021   1.00
H1       1.10053    0.19226    0.23093   1.00
H1       0.89947    0.19046    0.23763   1.00
C6       1.04234    0.14724    0.20976   1.00
C6       0.95766    0.14089    0.23345   1.00
H2       1.02358    0.13251    0.18786   1.00
H2       1.06737    0.15709    0.19196   1.00
C6       1.05724    0.11850    0.24079   1.00
H2       0.97642    0.11718    0.24504   1.00
H2       0.93263    0.14052    0.25379   1.00
C6       0.94276    0.13152    0.19220   1.00
H2       1.03274    0.10716    0.25881   1.00
C6       1.07832    0.08429    0.22158   1.00
H2       1.07760    0.13369    0.26106   1.00
C6       0.92168    0.09230    0.19172   1.00
H2       0.92240    0.15482    0.18224   1.00
H2       0.96726    0.13072    0.17093   1.00
H2       1.05822    0.06822    0.20186   1.00
H2       1.10380    0.09477    0.20448   1.00
H2       1.08898    0.06378    0.24431   1.00
H2       0.94178    0.06851    0.20076   1.00
H2       0.89620    0.09282    0.21177   1.00
H2       0.91102    0.08590    0.16179   1.00
C4       0.74925    -0.02067   0.24980   1.00
C4       0.75075    0.02067    0.25020   1.00
C3       0.73660    -0.04244   0.28281   1.00
C3       0.74519    0.04244    0.28511   1.00
C4       0.76087    -0.04150   0.21586   1.00
C4       0.75767    0.04150    0.21500   1.00
C2       0.74985    -0.10352   0.25061   1.00
C2       0.74982    0.10352    0.25060   1.00
C3       0.73732    -0.08310   0.28314   1.00
C3       0.74441    0.08310    0.28504   1.00
C3       0.76099    -0.08306   0.21713   1.00
C3       0.75692    0.08306    0.21604   1.00
H1       0.72503    -0.02888   0.30867   1.00
H1       0.74228    0.02888    0.31329   1.00
C5       0.77147    -0.02065   0.18143   1.00
C5       0.76570    0.02065    0.17989   1.00
H1       0.72781    -0.09886   0.30883   1.00
H1       0.73979    0.09886    0.31204   1.00
H1       0.76907    -0.10053   0.19226   1.00
H1       0.76237    0.10053    0.19046   1.00
C6       0.79024    -0.04234   0.14724   1.00
C6       0.76655    0.04234    0.14089   1.00
H2       0.81214    -0.02358   0.13251   1.00
H2       0.80804    -0.06737   0.15709   1.00
C6       0.75921    -0.05724   0.11850   1.00
H2       0.75496    0.02358    0.11718   1.00
H2       0.74621    0.06737    0.14052   1.00
C6       0.80780    0.05724    0.13152   1.00
H2       0.74119    -0.03274   0.10716   1.00
C6       0.77842    -0.07832   0.08429   1.00
H2       0.73894    -0.07760   0.13369   1.00
C6       0.80828    0.07832    0.09230   1.00
H2       0.81776    0.07760    0.15482   1.00
H2       0.82907    0.03274    0.13072   1.00
H2       0.79814    -0.05822   0.06822   1.00
H2       0.79552    -0.10380   0.09477   1.00
H2       0.75569    -0.08898   0.06378   1.00
H2       0.79924    0.05822    0.06851   1.00
H2       0.78823    0.10380    0.09282   1.00
H2       0.83821    0.08898    0.08590   1.00
C4       0.74980    0.24925    -0.02067   1.00
C4       0.75020    0.25075    0.02067   1.00
C3       0.78281    0.23660    -0.04244   1.00
C3       0.78511    0.24519    0.04244   1.00
C4       0.71586    0.26087    -0.04150   1.00
C4       0.71500    0.25767    0.04150   1.00
C2       0.75061    0.24985    -0.10352   1.00
C2       0.75060    0.24982    0.10352   1.00
C3       0.78314    0.23732    -0.08310   1.00
C3       0.78504    0.24441    0.08310   1.00
C3       0.71713    0.26099    -0.08306   1.00
C3       0.71604    0.25692    0.08306   1.00
H1       0.80867    0.22503    -0.02888   1.00
H1       0.81329    0.24228    0.02888   1.00
C5       0.68143    0.27147    -0.02065   1.00
C5       0.67989    0.26570    0.02065   1.00
H1       0.80883    0.22781    -0.09886   1.00
H1       0.81204    0.23979    0.09886   1.00
H1       0.69226    0.26907    -0.10053   1.00
H1       0.69046    0.26237    0.10053   1.00
C6       0.64724    0.29024    -0.04234   1.00
C6       0.64089    0.26655    0.04234   1.00
H2       0.63251    0.31214    -0.02358   1.00
H2       0.65709    0.30804    -0.06737   1.00
C6       0.61850    0.25921    -0.05724   1.00
H2       0.61718    0.25496    0.02358   1.00
H2       0.64052    0.24621    0.06737   1.00
C6       0.63152    0.30780    0.05724   1.00
H2       0.60716    0.24119    -0.03274   1.00
C6       0.58429    0.27842    -0.07832   1.00
H2       0.63369    0.23894    -0.07760   1.00
C6       0.59230    0.30828    0.07832   1.00
H2       0.65482    0.31776    0.07760   1.00
H2       0.63072    0.32907    0.03274   1.00
H2       0.56822    0.29814    -0.05822   1.00
H2       0.59477    0.29552    -0.10380   1.00
H2       0.56378    0.25569    -0.08898   1.00
H2       0.56851    0.29924    0.05822   1.00
H2       0.59282    0.28823    0.10380   1.00
H2       0.58590    0.33821    0.08898   1.00
C4       0.91480    0.91575    1.18567   1.00
C4       0.91520    0.91425    1.14433   1.00
C3       0.94781    0.92840    1.20744   1.00
C3       0.95011    0.91981    1.12256   1.00
C4       0.88086    0.90413    1.20650   1.00
C4       0.88000    0.90733    1.12350   1.00
C2       0.91561    0.91515    1.26852   1.00
C2       0.91560    0.91518    1.06148   1.00
C3       0.94814    0.92768    1.24810   1.00
C3       0.95004    0.92059    1.08190   1.00
C3       0.88213    0.90401    1.24806   1.00
C3       0.88104    0.90808    1.08194   1.00
H1       0.97367    0.93997    1.19388   1.00
H1       0.97829    0.92272    1.13612   1.00
C5       0.84643    0.89353    1.18565   1.00
C5       0.84489    0.89930    1.14435   1.00
H1       0.97383    0.93719    1.26386   1.00
H1       0.97704    0.92521    1.06614   1.00
H1       0.85726    0.89593    1.26553   1.00
H1       0.85546    0.90263    1.06447   1.00
C6       0.81224    0.87476    1.20734   1.00
C6       0.80589    0.89845    1.12266   1.00
H2       0.79751    0.85286    1.18858   1.00
H2       0.82209    0.85696    1.23237   1.00
C6       0.78350    0.90579    1.22224   1.00
H2       0.78218    0.91004    1.14142   1.00
H2       0.80552    0.91879    1.09763   1.00
C6       0.79652    0.85720    1.10776   1.00
H2       0.77216    0.92381    1.19774   1.00
C6       0.74929    0.88658    1.24332   1.00
H2       0.79869    0.92606    1.24260   1.00
C6       0.75730    0.85672    1.08668   1.00
H2       0.81982    0.84724    1.08740   1.00
H2       0.79572    0.83593    1.13226   1.00
H2       0.73322    0.86686    1.22322   1.00
H2       0.75977    0.86948    1.26880   1.00
H2       0.72878    0.90931    1.25398   1.00
H2       0.73351    0.86576    1.10678   1.00
H2       0.75782    0.87677    1.06120   1.00
H2       0.75090    0.82679    1.07602   1.00
C4       0.91575    1.18567    0.91480   1.00
C4       0.91425    1.14433    0.91520   1.00
C3       0.92840    1.20744    0.94781   1.00
C3       0.91981    1.12256    0.95011   1.00
C4       0.90413    1.20650    0.88086   1.00
C4       0.90733    1.12350    0.88000   1.00
C2       0.91515    1.26852    0.91561   1.00
C2       0.91518    1.06148    0.91560   1.00
C3       0.92768    1.24810    0.94814   1.00
C3       0.92059    1.08190    0.95004   1.00
C3       0.90401    1.24806    0.88213   1.00
C3       0.90808    1.08194    0.88104   1.00
H1       0.93997    1.19388    0.97367   1.00
H1       0.92272    1.13612    0.97829   1.00
C5       0.89353    1.18565    0.84643   1.00
C5       0.89930    1.14435    0.84489   1.00
H1       0.93719    1.26386    0.97383   1.00
H1       0.92521    1.06614    0.97704   1.00
H1       0.89593    1.26553    0.85726   1.00
H1       0.90263    1.06447    0.85546   1.00
C6       0.87476    1.20734    0.81224   1.00
C6       0.89845    1.12266    0.80589   1.00
H2       0.85286    1.18858    0.79751   1.00
H2       0.85696    1.23237    0.82209   1.00
C6       0.90579    1.22224    0.78350   1.00
H2       0.91004    1.14142    0.78218   1.00
H2       0.91879    1.09763    0.80552   1.00
C6       0.85720    1.10776    0.79652   1.00
H2       0.92381    1.19774    0.77216   1.00
C6       0.88658    1.24332    0.74929   1.00
H2       0.92606    1.24260    0.79869   1.00
C6       0.85672    1.08668    0.75730   1.00
H2       0.84724    1.08740    0.81982   1.00
H2       0.83593    1.13226    0.79572   1.00
H2       0.86686    1.22322    0.73322   1.00
H2       0.86948    1.26880    0.75977   1.00
H2       0.90931    1.25398    0.72878   1.00
H2       0.86576    1.10678    0.73351   1.00
H2       0.87677    1.06120    0.75782   1.00
H2       0.82679    1.07602    0.75090   1.00
C4       0.64433    0.91480    0.91425   1.00
C4       0.68567    0.91520    0.91575   1.00
C3       0.62256    0.94781    0.90160   1.00
C3       0.70744    0.95011    0.91019   1.00
C4       0.62350    0.88086    0.92587   1.00
C4       0.70650    0.88000    0.92267   1.00
C2       0.56148    0.91561    0.91485   1.00
C2       0.76852    0.91560    0.91482   1.00
C3       0.58190    0.94814    0.90232   1.00
C3       0.74810    0.95004    0.90941   1.00
C3       0.58194    0.88213    0.92599   1.00
C3       0.74806    0.88104    0.92192   1.00
H1       0.63612    0.97367    0.89003   1.00
H1       0.69388    0.97829    0.90728   1.00
C5       0.64435    0.84643    0.93647   1.00
C5       0.68565    0.84489    0.93070   1.00
H1       0.56614    0.97383    0.89281   1.00
H1       0.76386    0.97704    0.90479   1.00
H1       0.56447    0.85726    0.93407   1.00
H1       0.76553    0.85546    0.92737   1.00
C6       0.62266    0.81224    0.95524   1.00
C6       0.70734    0.80589    0.93155   1.00
H2       0.64142    0.79751    0.97714   1.00
H2       0.59763    0.82209    0.97304   1.00
C6       0.60776    0.78350    0.92421   1.00
H2       0.68858    0.78218    0.91996   1.00
H2       0.73237    0.80552    0.91121   1.00
C6       0.72224    0.79652    0.97280   1.00
H2       0.63226    0.77216    0.90619   1.00
C6       0.58668    0.74929    0.94342   1.00
H2       0.58740    0.79869    0.90394   1.00
C6       0.74332    0.75730    0.97328   1.00
H2       0.74260    0.81982    0.98276   1.00
H2       0.69774    0.79572    0.99407   1.00
H2       0.60678    0.73322    0.96314   1.00
H2       0.56120    0.75977    0.96052   1.00
H2       0.57602    0.72878    0.92069   1.00
H2       0.72322    0.73351    0.96424   1.00
H2       0.76880    0.75782    0.95323   1.00
H2       0.75398    0.75090    1.00321   1.00
C4       1.18567    0.91480    0.91575   1.00
C4       1.14433    0.91520    0.91425   1.00
C3       1.20744    0.94781    0.92840   1.00
C3       1.12256    0.95011    0.91981   1.00
C4       1.20650    0.88086    0.90413   1.00
C4       1.12350    0.88000    0.90733   1.00
C2       1.26852    0.91561    0.91515   1.00
C2       1.06148    0.91560    0.91518   1.00
C3       1.24810    0.94814    0.92768   1.00
C3       1.08190    0.95004    0.92059   1.00
C3       1.24806    0.88213    0.90401   1.00
C3       1.08194    0.88104    0.90808   1.00
H1       1.19388    0.97367    0.93997   1.00
H1       1.13612    0.97829    0.92272   1.00
C5       1.18565    0.84643    0.89353   1.00
C5       1.14435    0.84489    0.89930   1.00
H1       1.26386    0.97383    0.93719   1.00
H1       1.06614    0.97704    0.92521   1.00
H1       1.26553    0.85726    0.89593   1.00
H1       1.06447    0.85546    0.90263   1.00
C6       1.20734    0.81224    0.87476   1.00
C6       1.12266    0.80589    0.89845   1.00
H2       1.18858    0.79751    0.85286   1.00
H2       1.23237    0.82209    0.85696   1.00
C6       1.22224    0.78350    0.90579   1.00
H2       1.14142    0.78218    0.91004   1.00
H2       1.09763    0.80552    0.91879   1.00
C6       1.10776    0.79652    0.85720   1.00
H2       1.19774    0.77216    0.92381   1.00
C6       1.24332    0.74929    0.88658   1.00
H2       1.24260    0.79869    0.92606   1.00
C6       1.08668    0.75730    0.85672   1.00
H2       1.08740    0.81982    0.84724   1.00
H2       1.13226    0.79572    0.83593   1.00
H2       1.22322    0.73322    0.86686   1.00
H2       1.26880    0.75977    0.86948   1.00
H2       1.25398    0.72878    0.90931   1.00
H2       1.10678    0.73351    0.86576   1.00
H2       1.06120    0.75782    0.87677   1.00
H2       1.07602    0.75090    0.82679   1.00
C4       0.91425    0.64433    0.91480   1.00
C4       0.91575    0.68567    0.91520   1.00
C3       0.90160    0.62256    0.94781   1.00
C3       0.91019    0.70744    0.95011   1.00
C4       0.92587    0.62350    0.88086   1.00
C4       0.92267    0.70650    0.88000   1.00
C2       0.91485    0.56148    0.91561   1.00
C2       0.91482    0.76852    0.91560   1.00
C3       0.90232    0.58190    0.94814   1.00
C3       0.90941    0.74810    0.95004   1.00
C3       0.92599    0.58194    0.88213   1.00
C3       0.92192    0.74806    0.88104   1.00
H1       0.89003    0.63612    0.97367   1.00
H1       0.90728    0.69388    0.97829   1.00
C5       0.93647    0.64435    0.84643   1.00
C5       0.93070    0.68565    0.84489   1.00
H1       0.89281    0.56614    0.97383   1.00
H1       0.90479    0.76386    0.97704   1.00
H1       0.93407    0.56447    0.85726   1.00
H1       0.92737    0.76553    0.85546   1.00
C6       0.95524    0.62266    0.81224   1.00
C6       0.93155    0.70734    0.80589   1.00
H2       0.97714    0.64142    0.79751   1.00
H2       0.97304    0.59763    0.82209   1.00
C6       0.92421    0.60776    0.78350   1.00
H2       0.91996    0.68858    0.78218   1.00
H2       0.91121    0.73237    0.80552   1.00
C6       0.97280    0.72224    0.79652   1.00
H2       0.90619    0.63226    0.77216   1.00
C6       0.94342    0.58668    0.74929   1.00
H2       0.90394    0.58740    0.79869   1.00
C6       0.97328    0.74332    0.75730   1.00
H2       0.98276    0.74260    0.81982   1.00
H2       0.99407    0.69774    0.79572   1.00
H2       0.96314    0.60678    0.73322   1.00
H2       0.96052    0.56120    0.75977   1.00
H2       0.92069    0.57602    0.72878   1.00
H2       0.96424    0.72322    0.73351   1.00
H2       0.95323    0.76880    0.75782   1.00
H2       1.00321    0.75398    0.75090   1.00
C4       0.91480    0.91425    0.64433   1.00
C4       0.91520    0.91575    0.68567   1.00
C3       0.94781    0.90160    0.62256   1.00
C3       0.95011    0.91019    0.70744   1.00
C4       0.88086    0.92587    0.62350   1.00
C4       0.88000    0.92267    0.70650   1.00
C2       0.91561    0.91485    0.56148   1.00
C2       0.91560    0.91482    0.76852   1.00
C3       0.94814    0.90232    0.58190   1.00
C3       0.95004    0.90941    0.74810   1.00
C3       0.88213    0.92599    0.58194   1.00
C3       0.88104    0.92192    0.74806   1.00
H1       0.97367    0.89003    0.63612   1.00
H1       0.97829    0.90728    0.69388   1.00
C5       0.84643    0.93647    0.64435   1.00
C5       0.84489    0.93070    0.68565   1.00
H1       0.97383    0.89281    0.56614   1.00
H1       0.97704    0.90479    0.76386   1.00
H1       0.85726    0.93407    0.56447   1.00
H1       0.85546    0.92737    0.76553   1.00
C6       0.81224    0.95524    0.62266   1.00
C6       0.80589    0.93155    0.70734   1.00
H2       0.79751    0.97714    0.64142   1.00
H2       0.82209    0.97304    0.59763   1.00
C6       0.78350    0.92421    0.60776   1.00
H2       0.78218    0.91996    0.68858   1.00
H2       0.80552    0.91121    0.73237   1.00
C6       0.79652    0.97280    0.72224   1.00
H2       0.77216    0.90619    0.63226   1.00
C6       0.74929    0.94342    0.58668   1.00
H2       0.79869    0.90394    0.58740   1.00
C6       0.75730    0.97328    0.74332   1.00
H2       0.81982    0.98276    0.74260   1.00
H2       0.79572    0.99407    0.69774   1.00
H2       0.73322    0.96314    0.60678   1.00
H2       0.75977    0.96052    0.56120   1.00
H2       0.72878    0.92069    0.57602   1.00
H2       0.73351    0.96424    0.72322   1.00
H2       0.75782    0.95323    0.76880   1.00
H2       0.75090    1.00321    0.75398   1.00
C4       0.41480    0.41575    1.18567   1.00
C4       0.41520    0.41425    1.14433   1.00
C3       0.44781    0.42840    1.20744   1.00
C3       0.45011    0.41981    1.12256   1.00
C4       0.38086    0.40413    1.20650   1.00
C4       0.38000    0.40733    1.12350   1.00
C2       0.41561    0.41515    1.26852   1.00
C2       0.41560    0.41518    1.06148   1.00
C3       0.44814    0.42768    1.24810   1.00
C3       0.45004    0.42059    1.08190   1.00
C3       0.38213    0.40401    1.24806   1.00
C3       0.38104    0.40808    1.08194   1.00
H1       0.47367    0.43997    1.19388   1.00
H1       0.47829    0.42272    1.13612   1.00
C5       0.34643    0.39353    1.18565   1.00
C5       0.34489    0.39930    1.14435   1.00
H1       0.47383    0.43719    1.26386   1.00
H1       0.47704    0.42521    1.06614   1.00
H1       0.35726    0.39593    1.26553   1.00
H1       0.35546    0.40263    1.06447   1.00
C6       0.31224    0.37476    1.20734   1.00
C6       0.30589    0.39845    1.12266   1.00
H2       0.29751    0.35286    1.18858   1.00
H2       0.32209    0.35696    1.23237   1.00
C6       0.28350    0.40579    1.22224   1.00
H2       0.28218    0.41004    1.14142   1.00
H2       0.30552    0.41879    1.09763   1.00
C6       0.29652    0.35720    1.10776   1.00
H2       0.27216    0.42381    1.19774   1.00
C6       0.24929    0.38658    1.24332   1.00
H2       0.29869    0.42606    1.24260   1.00
C6       0.25730    0.35672    1.08668   1.00
H2       0.31982    0.34724    1.08740   1.00
H2       0.29572    0.33593    1.13226   1.00
H2       0.23322    0.36686    1.22322   1.00
H2       0.25977    0.36948    1.26880   1.00
H2       0.22878    0.40931    1.25398   1.00
H2       0.23351    0.36576    1.10678   1.00
H2       0.25782    0.37677    1.06120   1.00
H2       0.25090    0.32679    1.07602   1.00
C4       0.41575    0.68567    0.91480   1.00
C4       0.41425    0.64433    0.91520   1.00
C3       0.42840    0.70744    0.94781   1.00
C3       0.41981    0.62256    0.95011   1.00
C4       0.40413    0.70650    0.88086   1.00
C4       0.40733    0.62350    0.88000   1.00
C2       0.41515    0.76852    0.91561   1.00
C2       0.41518    0.56148    0.91560   1.00
C3       0.42768    0.74810    0.94814   1.00
C3       0.42059    0.58190    0.95004   1.00
C3       0.40401    0.74806    0.88213   1.00
C3       0.40808    0.58194    0.88104   1.00
H1       0.43997    0.69388    0.97367   1.00
H1       0.42272    0.63612    0.97829   1.00
C5       0.39353    0.68565    0.84643   1.00
C5       0.39930    0.64435    0.84489   1.00
H1       0.43719    0.76386    0.97383   1.00
H1       0.42521    0.56614    0.97704   1.00
H1       0.39593    0.76553    0.85726   1.00
H1       0.40263    0.56447    0.85546   1.00
C6       0.37476    0.70734    0.81224   1.00
C6       0.39845    0.62266    0.80589   1.00
H2       0.35286    0.68858    0.79751   1.00
H2       0.35696    0.73237    0.82209   1.00
C6       0.40579    0.72224    0.78350   1.00
H2       0.41004    0.64142    0.78218   1.00
H2       0.41879    0.59763    0.80552   1.00
C6       0.35720    0.60776    0.79652   1.00
H2       0.42381    0.69774    0.77216   1.00
C6       0.38658    0.74332    0.74929   1.00
H2       0.42606    0.74260    0.79869   1.00
C6       0.35672    0.58668    0.75730   1.00
H2       0.34724    0.58740    0.81982   1.00
H2       0.33593    0.63226    0.79572   1.00
H2       0.36686    0.72322    0.73322   1.00
H2       0.36948    0.76880    0.75977   1.00
H2       0.40931    0.75398    0.72878   1.00
H2       0.36576    0.60678    0.73351   1.00
H2       0.37677    0.56120    0.75782   1.00
H2       0.32679    0.57602    0.75090   1.00
C4       0.14433    0.41480    0.91425   1.00
C4       0.18567    0.41520    0.91575   1.00
C3       0.12256    0.44781    0.90160   1.00
C3       0.20744    0.45011    0.91019   1.00
C4       0.12350    0.38086    0.92587   1.00
C4       0.20650    0.38000    0.92267   1.00
C2       0.06148    0.41561    0.91485   1.00
C2       0.26852    0.41560    0.91482   1.00
C3       0.08190    0.44814    0.90232   1.00
C3       0.24810    0.45004    0.90941   1.00
C3       0.08194    0.38213    0.92599   1.00
C3       0.24806    0.38104    0.92192   1.00
H1       0.13612    0.47367    0.89003   1.00
H1       0.19388    0.47829    0.90728   1.00
C5       0.14435    0.34643    0.93647   1.00
C5       0.18565    0.34489    0.93070   1.00
H1       0.06614    0.47383    0.89281   1.00
H1       0.26386    0.47704    0.90479   1.00
H1       0.06447    0.35726    0.93407   1.00
H1       0.26553    0.35546    0.92737   1.00
C6       0.12266    0.31224    0.95524   1.00
C6       0.20734    0.30589    0.93155   1.00
H2       0.14142    0.29751    0.97714   1.00
H2       0.09763    0.32209    0.97304   1.00
C6       0.10776    0.28350    0.92421   1.00
H2       0.18858    0.28218    0.91996   1.00
H2       0.23237    0.30552    0.91121   1.00
C6       0.22224    0.29652    0.97280   1.00
H2       0.13226    0.27216    0.90619   1.00
C6       0.08668    0.24929    0.94342   1.00
H2       0.08740    0.29869    0.90394   1.00
C6       0.24332    0.25730    0.97328   1.00
H2       0.24260    0.31982    0.98276   1.00
H2       0.19774    0.29572    0.99407   1.00
H2       0.10678    0.23322    0.96314   1.00
H2       0.06120    0.25977    0.96052   1.00
H2       0.07602    0.22878    0.92069   1.00
H2       0.22322    0.23351    0.96424   1.00
H2       0.26880    0.25782    0.95323   1.00
H2       0.25398    0.25090    1.00321   1.00
C4       0.68567    0.41480    0.91575   1.00
C4       0.64433    0.41520    0.91425   1.00
C3       0.70744    0.44781    0.92840   1.00
C3       0.62256    0.45011    0.91981   1.00
C4       0.70650    0.38086    0.90413   1.00
C4       0.62350    0.38000    0.90733   1.00
C2       0.76852    0.41561    0.91515   1.00
C2       0.56148    0.41560    0.91518   1.00
C3       0.74810    0.44814    0.92768   1.00
C3       0.58190    0.45004    0.92059   1.00
C3       0.74806    0.38213    0.90401   1.00
C3       0.58194    0.38104    0.90808   1.00
H1       0.69388    0.47367    0.93997   1.00
H1       0.63612    0.47829    0.92272   1.00
C5       0.68565    0.34643    0.89353   1.00
C5       0.64435    0.34489    0.89930   1.00
H1       0.76386    0.47383    0.93719   1.00
H1       0.56614    0.47704    0.92521   1.00
H1       0.76553    0.35726    0.89593   1.00
H1       0.56447    0.35546    0.90263   1.00
C6       0.70734    0.31224    0.87476   1.00
C6       0.62266    0.30589    0.89845   1.00
H2       0.68858    0.29751    0.85286   1.00
H2       0.73237    0.32209    0.85696   1.00
C6       0.72224    0.28350    0.90579   1.00
H2       0.64142    0.28218    0.91004   1.00
H2       0.59763    0.30552    0.91879   1.00
C6       0.60776    0.29652    0.85720   1.00
H2       0.69774    0.27216    0.92381   1.00
C6       0.74332    0.24929    0.88658   1.00
H2       0.74260    0.29869    0.92606   1.00
C6       0.58668    0.25730    0.85672   1.00
H2       0.58740    0.31982    0.84724   1.00
H2       0.63226    0.29572    0.83593   1.00
H2       0.72322    0.23322    0.86686   1.00
H2       0.76880    0.25977    0.86948   1.00
H2       0.75398    0.22878    0.90931   1.00
H2       0.60678    0.23351    0.86576   1.00
H2       0.56120    0.25782    0.87677   1.00
H2       0.57602    0.25090    0.82679   1.00
C4       0.41425    0.14433    0.91480   1.00
C4       0.41575    0.18567    0.91520   1.00
C3       0.40160    0.12256    0.94781   1.00
C3       0.41019    0.20744    0.95011   1.00
C4       0.42587    0.12350    0.88086   1.00
C4       0.42267    0.20650    0.88000   1.00
C2       0.41485    0.06148    0.91561   1.00
C2       0.41482    0.26852    0.91560   1.00
C3       0.40232    0.08190    0.94814   1.00
C3       0.40941    0.24810    0.95004   1.00
C3       0.42599    0.08194    0.88213   1.00
C3       0.42192    0.24806    0.88104   1.00
H1       0.39003    0.13612    0.97367   1.00
H1       0.40728    0.19388    0.97829   1.00
C5       0.43647    0.14435    0.84643   1.00
C5       0.43070    0.18565    0.84489   1.00
H1       0.39281    0.06614    0.97383   1.00
H1       0.40479    0.26386    0.97704   1.00
H1       0.43407    0.06447    0.85726   1.00
H1       0.42737    0.26553    0.85546   1.00
C6       0.45524    0.12266    0.81224   1.00
C6       0.43155    0.20734    0.80589   1.00
H2       0.47714    0.14142    0.79751   1.00
H2       0.47304    0.09763    0.82209   1.00
C6       0.42421    0.10776    0.78350   1.00
H2       0.41996    0.18858    0.78218   1.00
H2       0.41121    0.23237    0.80552   1.00
C6       0.47280    0.22224    0.79652   1.00
H2       0.40619    0.13226    0.77216   1.00
C6       0.44342    0.08668    0.74929   1.00
H2       0.40394    0.08740    0.79869   1.00
C6       0.47328    0.24332    0.75730   1.00
H2       0.48276    0.24260    0.81982   1.00
H2       0.49407    0.19774    0.79572   1.00
H2       0.46314    0.10678    0.73322   1.00
H2       0.46052    0.06120    0.75977   1.00
H2       0.42069    0.07602    0.72878   1.00
H2       0.46424    0.22322    0.73351   1.00
H2       0.45323    0.26880    0.75782   1.00
H2       0.50321    0.25398    0.75090   1.00
C4       0.41480    0.41425    0.64433   1.00
C4       0.41520    0.41575    0.68567   1.00
C3       0.44781    0.40160    0.62256   1.00
C3       0.45011    0.41019    0.70744   1.00
C4       0.38086    0.42587    0.62350   1.00
C4       0.38000    0.42267    0.70650   1.00
C2       0.41561    0.41485    0.56148   1.00
C2       0.41560    0.41482    0.76852   1.00
C3       0.44814    0.40232    0.58190   1.00
C3       0.45004    0.40941    0.74810   1.00
C3       0.38213    0.42599    0.58194   1.00
C3       0.38104    0.42192    0.74806   1.00
H1       0.47367    0.39003    0.63612   1.00
H1       0.47829    0.40728    0.69388   1.00
C5       0.34643    0.43647    0.64435   1.00
C5       0.34489    0.43070    0.68565   1.00
H1       0.47383    0.39281    0.56614   1.00
H1       0.47704    0.40479    0.76386   1.00
H1       0.35726    0.43407    0.56447   1.00
H1       0.35546    0.42737    0.76553   1.00
C6       0.31224    0.45524    0.62266   1.00
C6       0.30589    0.43155    0.70734   1.00
H2       0.29751    0.47714    0.64142   1.00
H2       0.32209    0.47304    0.59763   1.00
C6       0.28350    0.42421    0.60776   1.00
H2       0.28218    0.41996    0.68858   1.00
H2       0.30552    0.41121    0.73237   1.00
C6       0.29652    0.47280    0.72224   1.00
H2       0.27216    0.40619    0.63226   1.00
C6       0.24929    0.44342    0.58668   1.00
H2       0.29869    0.40394    0.58740   1.00
C6       0.25730    0.47328    0.74332   1.00
H2       0.31982    0.48276    0.74260   1.00
H2       0.29572    0.49407    0.69774   1.00
H2       0.23322    0.46314    0.60678   1.00
H2       0.25977    0.46052    0.56120   1.00
H2       0.22878    0.42069    0.57602   1.00
H2       0.23351    0.46424    0.72322   1.00
H2       0.25782    0.45323    0.76880   1.00
H2       0.25090    0.50321    0.75398   1.00
C4       0.41480    0.91575    0.68567   1.00
C4       0.41520    0.91425    0.64433   1.00
C3       0.44781    0.92840    0.70744   1.00
C3       0.45011    0.91981    0.62256   1.00
C4       0.38086    0.90413    0.70650   1.00
C4       0.38000    0.90733    0.62350   1.00
C2       0.41561    0.91515    0.76852   1.00
C2       0.41560    0.91518    0.56148   1.00
C3       0.44814    0.92768    0.74810   1.00
C3       0.45004    0.92059    0.58190   1.00
C3       0.38213    0.90401    0.74806   1.00
C3       0.38104    0.90808    0.58194   1.00
H1       0.47367    0.93997    0.69388   1.00
H1       0.47829    0.92272    0.63612   1.00
C5       0.34643    0.89353    0.68565   1.00
C5       0.34489    0.89930    0.64435   1.00
H1       0.47383    0.93719    0.76386   1.00
H1       0.47704    0.92521    0.56614   1.00
H1       0.35726    0.89593    0.76553   1.00
H1       0.35546    0.90263    0.56447   1.00
C6       0.31224    0.87476    0.70734   1.00
C6       0.30589    0.89845    0.62266   1.00
H2       0.29751    0.85286    0.68858   1.00
H2       0.32209    0.85696    0.73237   1.00
C6       0.28350    0.90579    0.72224   1.00
H2       0.28218    0.91004    0.64142   1.00
H2       0.30552    0.91879    0.59763   1.00
C6       0.29652    0.85720    0.60776   1.00
H2       0.27216    0.92381    0.69774   1.00
C6       0.24929    0.88658    0.74332   1.00
H2       0.29869    0.92606    0.74260   1.00
C6       0.25730    0.85672    0.58668   1.00
H2       0.31982    0.84724    0.58740   1.00
H2       0.29572    0.83593    0.63226   1.00
H2       0.23322    0.86686    0.72322   1.00
H2       0.25977    0.86948    0.76880   1.00
H2       0.22878    0.90931    0.75398   1.00
H2       0.23351    0.86576    0.60678   1.00
H2       0.25782    0.87677    0.56120   1.00
H2       0.25090    0.82679    0.57602   1.00
C4       0.41575    1.18567    0.41480   1.00
C4       0.41425    1.14433    0.41520   1.00
C3       0.42840    1.20744    0.44781   1.00
C3       0.41981    1.12256    0.45011   1.00
C4       0.40413    1.20650    0.38086   1.00
C4       0.40733    1.12350    0.38000   1.00
C2       0.41515    1.26852    0.41561   1.00
C2       0.41518    1.06148    0.41560   1.00
C3       0.42768    1.24810    0.44814   1.00
C3       0.42059    1.08190    0.45004   1.00
C3       0.40401    1.24806    0.38213   1.00
C3       0.40808    1.08194    0.38104   1.00
H1       0.43997    1.19388    0.47367   1.00
H1       0.42272    1.13612    0.47829   1.00
C5       0.39353    1.18565    0.34643   1.00
C5       0.39930    1.14435    0.34489   1.00
H1       0.43719    1.26386    0.47383   1.00
H1       0.42521    1.06614    0.47704   1.00
H1       0.39593    1.26553    0.35726   1.00
H1       0.40263    1.06447    0.35546   1.00
C6       0.37476    1.20734    0.31224   1.00
C6       0.39845    1.12266    0.30589   1.00
H2       0.35286    1.18858    0.29751   1.00
H2       0.35696    1.23237    0.32209   1.00
C6       0.40579    1.22224    0.28350   1.00
H2       0.41004    1.14142    0.28218   1.00
H2       0.41879    1.09763    0.30552   1.00
C6       0.35720    1.10776    0.29652   1.00
H2       0.42381    1.19774    0.27216   1.00
C6       0.38658    1.24332    0.24929   1.00
H2       0.42606    1.24260    0.29869   1.00
C6       0.35672    1.08668    0.25730   1.00
H2       0.34724    1.08740    0.31982   1.00
H2       0.33593    1.13226    0.29572   1.00
H2       0.36686    1.22322    0.23322   1.00
H2       0.36948    1.26880    0.25977   1.00
H2       0.40931    1.25398    0.22878   1.00
H2       0.36576    1.10678    0.23351   1.00
H2       0.37677    1.06120    0.25782   1.00
H2       0.32679    1.07602    0.25090   1.00
C4       0.14433    0.91480    0.41425   1.00
C4       0.18567    0.91520    0.41575   1.00
C3       0.12256    0.94781    0.40160   1.00
C3       0.20744    0.95011    0.41019   1.00
C4       0.12350    0.88086    0.42587   1.00
C4       0.20650    0.88000    0.42267   1.00
C2       0.06148    0.91561    0.41485   1.00
C2       0.26852    0.91560    0.41482   1.00
C3       0.08190    0.94814    0.40232   1.00
C3       0.24810    0.95004    0.40941   1.00
C3       0.08194    0.88213    0.42599   1.00
C3       0.24806    0.88104    0.42192   1.00
H1       0.13612    0.97367    0.39003   1.00
H1       0.19388    0.97829    0.40728   1.00
C5       0.14435    0.84643    0.43647   1.00
C5       0.18565    0.84489    0.43070   1.00
H1       0.06614    0.97383    0.39281   1.00
H1       0.26386    0.97704    0.40479   1.00
H1       0.06447    0.85726    0.43407   1.00
H1       0.26553    0.85546    0.42737   1.00
C6       0.12266    0.81224    0.45524   1.00
C6       0.20734    0.80589    0.43155   1.00
H2       0.14142    0.79751    0.47714   1.00
H2       0.09763    0.82209    0.47304   1.00
C6       0.10776    0.78350    0.42421   1.00
H2       0.18858    0.78218    0.41996   1.00
H2       0.23237    0.80552    0.41121   1.00
C6       0.22224    0.79652    0.47280   1.00
H2       0.13226    0.77216    0.40619   1.00
C6       0.08668    0.74929    0.44342   1.00
H2       0.08740    0.79869    0.40394   1.00
C6       0.24332    0.75730    0.47328   1.00
H2       0.24260    0.81982    0.48276   1.00
H2       0.19774    0.79572    0.49407   1.00
H2       0.10678    0.73322    0.46314   1.00
H2       0.06120    0.75977    0.46052   1.00
H2       0.07602    0.72878    0.42069   1.00
H2       0.22322    0.73351    0.46424   1.00
H2       0.26880    0.75782    0.45323   1.00
H2       0.25398    0.75090    0.50321   1.00
C4       0.68567    0.91480    0.41575   1.00
C4       0.64433    0.91520    0.41425   1.00
C3       0.70744    0.94781    0.42840   1.00
C3       0.62256    0.95011    0.41981   1.00
C4       0.70650    0.88086    0.40413   1.00
C4       0.62350    0.88000    0.40733   1.00
C2       0.76852    0.91561    0.41515   1.00
C2       0.56148    0.91560    0.41518   1.00
C3       0.74810    0.94814    0.42768   1.00
C3       0.58190    0.95004    0.42059   1.00
C3       0.74806    0.88213    0.40401   1.00
C3       0.58194    0.88104    0.40808   1.00
H1       0.69388    0.97367    0.43997   1.00
H1       0.63612    0.97829    0.42272   1.00
C5       0.68565    0.84643    0.39353   1.00
C5       0.64435    0.84489    0.39930   1.00
H1       0.76386    0.97383    0.43719   1.00
H1       0.56614    0.97704    0.42521   1.00
H1       0.76553    0.85726    0.39593   1.00
H1       0.56447    0.85546    0.40263   1.00
C6       0.70734    0.81224    0.37476   1.00
C6       0.62266    0.80589    0.39845   1.00
H2       0.68858    0.79751    0.35286   1.00
H2       0.73237    0.82209    0.35696   1.00
C6       0.72224    0.78350    0.40579   1.00
H2       0.64142    0.78218    0.41004   1.00
H2       0.59763    0.80552    0.41879   1.00
C6       0.60776    0.79652    0.35720   1.00
H2       0.69774    0.77216    0.42381   1.00
C6       0.74332    0.74929    0.38658   1.00
H2       0.74260    0.79869    0.42606   1.00
C6       0.58668    0.75730    0.35672   1.00
H2       0.58740    0.81982    0.34724   1.00
H2       0.63226    0.79572    0.33593   1.00
H2       0.72322    0.73322    0.36686   1.00
H2       0.76880    0.75977    0.36948   1.00
H2       0.75398    0.72878    0.40931   1.00
H2       0.60678    0.73351    0.36576   1.00
H2       0.56120    0.75782    0.37677   1.00
H2       0.57602    0.75090    0.32679   1.00
C4       0.41425    0.64433    0.41480   1.00
C4       0.41575    0.68567    0.41520   1.00
C3       0.40160    0.62256    0.44781   1.00
C3       0.41019    0.70744    0.45011   1.00
C4       0.42587    0.62350    0.38086   1.00
C4       0.42267    0.70650    0.38000   1.00
C2       0.41485    0.56148    0.41561   1.00
C2       0.41482    0.76852    0.41560   1.00
C3       0.40232    0.58190    0.44814   1.00
C3       0.40941    0.74810    0.45004   1.00
C3       0.42599    0.58194    0.38213   1.00
C3       0.42192    0.74806    0.38104   1.00
H1       0.39003    0.63612    0.47367   1.00
H1       0.40728    0.69388    0.47829   1.00
C5       0.43647    0.64435    0.34643   1.00
C5       0.43070    0.68565    0.34489   1.00
H1       0.39281    0.56614    0.47383   1.00
H1       0.40479    0.76386    0.47704   1.00
H1       0.43407    0.56447    0.35726   1.00
H1       0.42737    0.76553    0.35546   1.00
C6       0.45524    0.62266    0.31224   1.00
C6       0.43155    0.70734    0.30589   1.00
H2       0.47714    0.64142    0.29751   1.00
H2       0.47304    0.59763    0.32209   1.00
C6       0.42421    0.60776    0.28350   1.00
H2       0.41996    0.68858    0.28218   1.00
H2       0.41121    0.73237    0.30552   1.00
C6       0.47280    0.72224    0.29652   1.00
H2       0.40619    0.63226    0.27216   1.00
C6       0.44342    0.58668    0.24929   1.00
H2       0.40394    0.58740    0.29869   1.00
C6       0.47328    0.74332    0.25730   1.00
H2       0.48276    0.74260    0.31982   1.00
H2       0.49407    0.69774    0.29572   1.00
H2       0.46314    0.60678    0.23322   1.00
H2       0.46052    0.56120    0.25977   1.00
H2       0.42069    0.57602    0.22878   1.00
H2       0.46424    0.72322    0.23351   1.00
H2       0.45323    0.76880    0.25782   1.00
H2       0.50321    0.75398    0.25090   1.00
C4       0.41480    0.91425    0.14433   1.00
C4       0.41520    0.91575    0.18567   1.00
C3       0.44781    0.90160    0.12256   1.00
C3       0.45011    0.91019    0.20744   1.00
C4       0.38086    0.92587    0.12350   1.00
C4       0.38000    0.92267    0.20650   1.00
C2       0.41561    0.91485    0.06148   1.00
C2       0.41560    0.91482    0.26852   1.00
C3       0.44814    0.90232    0.08190   1.00
C3       0.45004    0.90941    0.24810   1.00
C3       0.38213    0.92599    0.08194   1.00
C3       0.38104    0.92192    0.24806   1.00
H1       0.47367    0.89003    0.13612   1.00
H1       0.47829    0.90728    0.19388   1.00
C5       0.34643    0.93647    0.14435   1.00
C5       0.34489    0.93070    0.18565   1.00
H1       0.47383    0.89281    0.06614   1.00
H1       0.47704    0.90479    0.26386   1.00
H1       0.35726    0.93407    0.06447   1.00
H1       0.35546    0.92737    0.26553   1.00
C6       0.31224    0.95524    0.12266   1.00
C6       0.30589    0.93155    0.20734   1.00
H2       0.29751    0.97714    0.14142   1.00
H2       0.32209    0.97304    0.09763   1.00
C6       0.28350    0.92421    0.10776   1.00
H2       0.28218    0.91996    0.18858   1.00
H2       0.30552    0.91121    0.23237   1.00
C6       0.29652    0.97280    0.22224   1.00
H2       0.27216    0.90619    0.13226   1.00
C6       0.24929    0.94342    0.08668   1.00
H2       0.29869    0.90394    0.08740   1.00
C6       0.25730    0.97328    0.24332   1.00
H2       0.31982    0.98276    0.24260   1.00
H2       0.29572    0.99407    0.19774   1.00
H2       0.23322    0.96314    0.10678   1.00
H2       0.25977    0.96052    0.06120   1.00
H2       0.22878    0.92069    0.07602   1.00
H2       0.23351    0.96424    0.22322   1.00
H2       0.25782    0.95323    0.26880   1.00
H2       0.25090    1.00321    0.25398   1.00
C4       0.91480    0.41575    0.68567   1.00
C4       0.91520    0.41425    0.64433   1.00
C3       0.94781    0.42840    0.70744   1.00
C3       0.95011    0.41981    0.62256   1.00
C4       0.88086    0.40413    0.70650   1.00
C4       0.88000    0.40733    0.62350   1.00
C2       0.91561    0.41515    0.76852   1.00
C2       0.91560    0.41518    0.56148   1.00
C3       0.94814    0.42768    0.74810   1.00
C3       0.95004    0.42059    0.58190   1.00
C3       0.88213    0.40401    0.74806   1.00
C3       0.88104    0.40808    0.58194   1.00
H1       0.97367    0.43997    0.69388   1.00
H1       0.97829    0.42272    0.63612   1.00
C5       0.84643    0.39353    0.68565   1.00
C5       0.84489    0.39930    0.64435   1.00
H1       0.97383    0.43719    0.76386   1.00
H1       0.97704    0.42521    0.56614   1.00
H1       0.85726    0.39593    0.76553   1.00
H1       0.85546    0.40263    0.56447   1.00
C6       0.81224    0.37476    0.70734   1.00
C6       0.80589    0.39845    0.62266   1.00
H2       0.79751    0.35286    0.68858   1.00
H2       0.82209    0.35696    0.73237   1.00
C6       0.78350    0.40579    0.72224   1.00
H2       0.78218    0.41004    0.64142   1.00
H2       0.80552    0.41879    0.59763   1.00
C6       0.79652    0.35720    0.60776   1.00
H2       0.77216    0.42381    0.69774   1.00
C6       0.74929    0.38658    0.74332   1.00
H2       0.79869    0.42606    0.74260   1.00
C6       0.75730    0.35672    0.58668   1.00
H2       0.81982    0.34724    0.58740   1.00
H2       0.79572    0.33593    0.63226   1.00
H2       0.73322    0.36686    0.72322   1.00
H2       0.75977    0.36948    0.76880   1.00
H2       0.72878    0.40931    0.75398   1.00
H2       0.73351    0.36576    0.60678   1.00
H2       0.75782    0.37677    0.56120   1.00
H2       0.75090    0.32679    0.57602   1.00
C4       0.91575    0.68567    0.41480   1.00
C4       0.91425    0.64433    0.41520   1.00
C3       0.92840    0.70744    0.44781   1.00
C3       0.91981    0.62256    0.45011   1.00
C4       0.90413    0.70650    0.38086   1.00
C4       0.90733    0.62350    0.38000   1.00
C2       0.91515    0.76852    0.41561   1.00
C2       0.91518    0.56148    0.41560   1.00
C3       0.92768    0.74810    0.44814   1.00
C3       0.92059    0.58190    0.45004   1.00
C3       0.90401    0.74806    0.38213   1.00
C3       0.90808    0.58194    0.38104   1.00
H1       0.93997    0.69388    0.47367   1.00
H1       0.92272    0.63612    0.47829   1.00
C5       0.89353    0.68565    0.34643   1.00
C5       0.89930    0.64435    0.34489   1.00
H1       0.93719    0.76386    0.47383   1.00
H1       0.92521    0.56614    0.47704   1.00
H1       0.89593    0.76553    0.35726   1.00
H1       0.90263    0.56447    0.35546   1.00
C6       0.87476    0.70734    0.31224   1.00
C6       0.89845    0.62266    0.30589   1.00
H2       0.85286    0.68858    0.29751   1.00
H2       0.85696    0.73237    0.32209   1.00
C6       0.90579    0.72224    0.28350   1.00
H2       0.91004    0.64142    0.28218   1.00
H2       0.91879    0.59763    0.30552   1.00
C6       0.85720    0.60776    0.29652   1.00
H2       0.92381    0.69774    0.27216   1.00
C6       0.88658    0.74332    0.24929   1.00
H2       0.92606    0.74260    0.29869   1.00
C6       0.85672    0.58668    0.25730   1.00
H2       0.84724    0.58740    0.31982   1.00
H2       0.83593    0.63226    0.29572   1.00
H2       0.86686    0.72322    0.23322   1.00
H2       0.86948    0.76880    0.25977   1.00
H2       0.90931    0.75398    0.22878   1.00
H2       0.86576    0.60678    0.23351   1.00
H2       0.87677    0.56120    0.25782   1.00
H2       0.82679    0.57602    0.25090   1.00
C4       0.64433    0.41480    0.41425   1.00
C4       0.68567    0.41520    0.41575   1.00
C3       0.62256    0.44781    0.40160   1.00
C3       0.70744    0.45011    0.41019   1.00
C4       0.62350    0.38086    0.42587   1.00
C4       0.70650    0.38000    0.42267   1.00
C2       0.56148    0.41561    0.41485   1.00
C2       0.76852    0.41560    0.41482   1.00
C3       0.58190    0.44814    0.40232   1.00
C3       0.74810    0.45004    0.40941   1.00
C3       0.58194    0.38213    0.42599   1.00
C3       0.74806    0.38104    0.42192   1.00
H1       0.63612    0.47367    0.39003   1.00
H1       0.69388    0.47829    0.40728   1.00
C5       0.64435    0.34643    0.43647   1.00
C5       0.68565    0.34489    0.43070   1.00
H1       0.56614    0.47383    0.39281   1.00
H1       0.76386    0.47704    0.40479   1.00
H1       0.56447    0.35726    0.43407   1.00
H1       0.76553    0.35546    0.42737   1.00
C6       0.62266    0.31224    0.45524   1.00
C6       0.70734    0.30589    0.43155   1.00
H2       0.64142    0.29751    0.47714   1.00
H2       0.59763    0.32209    0.47304   1.00
C6       0.60776    0.28350    0.42421   1.00
H2       0.68858    0.28218    0.41996   1.00
H2       0.73237    0.30552    0.41121   1.00
C6       0.72224    0.29652    0.47280   1.00
H2       0.63226    0.27216    0.40619   1.00
C6       0.58668    0.24929    0.44342   1.00
H2       0.58740    0.29869    0.40394   1.00
C6       0.74332    0.25730    0.47328   1.00
H2       0.74260    0.31982    0.48276   1.00
H2       0.69774    0.29572    0.49407   1.00
H2       0.60678    0.23322    0.46314   1.00
H2       0.56120    0.25977    0.46052   1.00
H2       0.57602    0.22878    0.42069   1.00
H2       0.72322    0.23351    0.46424   1.00
H2       0.76880    0.25782    0.45323   1.00
H2       0.75398    0.25090    0.50321   1.00
C4       1.18567    0.41480    0.41575   1.00
C4       1.14433    0.41520    0.41425   1.00
C3       1.20744    0.44781    0.42840   1.00
C3       1.12256    0.45011    0.41981   1.00
C4       1.20650    0.38086    0.40413   1.00
C4       1.12350    0.38000    0.40733   1.00
C2       1.26852    0.41561    0.41515   1.00
C2       1.06148    0.41560    0.41518   1.00
C3       1.24810    0.44814    0.42768   1.00
C3       1.08190    0.45004    0.42059   1.00
C3       1.24806    0.38213    0.40401   1.00
C3       1.08194    0.38104    0.40808   1.00
H1       1.19388    0.47367    0.43997   1.00
H1       1.13612    0.47829    0.42272   1.00
C5       1.18565    0.34643    0.39353   1.00
C5       1.14435    0.34489    0.39930   1.00
H1       1.26386    0.47383    0.43719   1.00
H1       1.06614    0.47704    0.42521   1.00
H1       1.26553    0.35726    0.39593   1.00
H1       1.06447    0.35546    0.40263   1.00
C6       1.20734    0.31224    0.37476   1.00
C6       1.12266    0.30589    0.39845   1.00
H2       1.18858    0.29751    0.35286   1.00
H2       1.23237    0.32209    0.35696   1.00
C6       1.22224    0.28350    0.40579   1.00
H2       1.14142    0.28218    0.41004   1.00
H2       1.09763    0.30552    0.41879   1.00
C6       1.10776    0.29652    0.35720   1.00
H2       1.19774    0.27216    0.42381   1.00
C6       1.24332    0.24929    0.38658   1.00
H2       1.24260    0.29869    0.42606   1.00
C6       1.08668    0.25730    0.35672   1.00
H2       1.08740    0.31982    0.34724   1.00
H2       1.13226    0.29572    0.33593   1.00
H2       1.22322    0.23322    0.36686   1.00
H2       1.26880    0.25977    0.36948   1.00
H2       1.25398    0.22878    0.40931   1.00
H2       1.10678    0.23351    0.36576   1.00
H2       1.06120    0.25782    0.37677   1.00
H2       1.07602    0.25090    0.32679   1.00
C4       0.91425    0.14433    0.41480   1.00
C4       0.91575    0.18567    0.41520   1.00
C3       0.90160    0.12256    0.44781   1.00
C3       0.91019    0.20744    0.45011   1.00
C4       0.92587    0.12350    0.38086   1.00
C4       0.92267    0.20650    0.38000   1.00
C2       0.91485    0.06148    0.41561   1.00
C2       0.91482    0.26852    0.41560   1.00
C3       0.90232    0.08190    0.44814   1.00
C3       0.90941    0.24810    0.45004   1.00
C3       0.92599    0.08194    0.38213   1.00
C3       0.92192    0.24806    0.38104   1.00
H1       0.89003    0.13612    0.47367   1.00
H1       0.90728    0.19388    0.47829   1.00
C5       0.93647    0.14435    0.34643   1.00
C5       0.93070    0.18565    0.34489   1.00
H1       0.89281    0.06614    0.47383   1.00
H1       0.90479    0.26386    0.47704   1.00
H1       0.93407    0.06447    0.35726   1.00
H1       0.92737    0.26553    0.35546   1.00
C6       0.95524    0.12266    0.31224   1.00
C6       0.93155    0.20734    0.30589   1.00
H2       0.97714    0.14142    0.29751   1.00
H2       0.97304    0.09763    0.32209   1.00
C6       0.92421    0.10776    0.28350   1.00
H2       0.91996    0.18858    0.28218   1.00
H2       0.91121    0.23237    0.30552   1.00
C6       0.97280    0.22224    0.29652   1.00
H2       0.90619    0.13226    0.27216   1.00
C6       0.94342    0.08668    0.24929   1.00
H2       0.90394    0.08740    0.29869   1.00
C6       0.97328    0.24332    0.25730   1.00
H2       0.98276    0.24260    0.31982   1.00
H2       0.99407    0.19774    0.29572   1.00
H2       0.96314    0.10678    0.23322   1.00
H2       0.96052    0.06120    0.25977   1.00
H2       0.92069    0.07602    0.22878   1.00
H2       0.96424    0.22322    0.23351   1.00
H2       0.95323    0.26880    0.25782   1.00
H2       1.00321    0.25398    0.25090   1.00
C4       0.91480    0.41425    0.14433   1.00
C4       0.91520    0.41575    0.18567   1.00
C3       0.94781    0.40160    0.12256   1.00
C3       0.95011    0.41019    0.20744   1.00
C4       0.88086    0.42587    0.12350   1.00
C4       0.88000    0.42267    0.20650   1.00
C2       0.91561    0.41485    0.06148   1.00
C2       0.91560    0.41482    0.26852   1.00
C3       0.94814    0.40232    0.08190   1.00
C3       0.95004    0.40941    0.24810   1.00
C3       0.88213    0.42599    0.08194   1.00
C3       0.88104    0.42192    0.24806   1.00
H1       0.97367    0.39003    0.13612   1.00
H1       0.97829    0.40728    0.19388   1.00
C5       0.84643    0.43647    0.14435   1.00
C5       0.84489    0.43070    0.18565   1.00
H1       0.97383    0.39281    0.06614   1.00
H1       0.97704    0.40479    0.26386   1.00
H1       0.85726    0.43407    0.06447   1.00
H1       0.85546    0.42737    0.26553   1.00
C6       0.81224    0.45524    0.12266   1.00
C6       0.80589    0.43155    0.20734   1.00
H2       0.79751    0.47714    0.14142   1.00
H2       0.82209    0.47304    0.09763   1.00
C6       0.78350    0.42421    0.10776   1.00
H2       0.78218    0.41996    0.18858   1.00
H2       0.80552    0.41121    0.23237   1.00
C6       0.79652    0.47280    0.22224   1.00
H2       0.77216    0.40619    0.13226   1.00
C6       0.74929    0.44342    0.08668   1.00
H2       0.79869    0.40394    0.08740   1.00
C6       0.75730    0.47328    0.24332   1.00
H2       0.81982    0.48276    0.24260   1.00
H2       0.79572    0.49407    0.19774   1.00
H2       0.73322    0.46314    0.10678   1.00
H2       0.75977    0.46052    0.06120   1.00
H2       0.72878    0.42069    0.07602   1.00
H2       0.73351    0.46424    0.22322   1.00
H2       0.75782    0.45323    0.26880   1.00
H2       0.75090    0.50321    0.25398   1.00
