data_IRMOF10_interpen_symm_ligand2cp_label_i.

_audit_creation_method             'generated by an auxiliary program of Tobunporous'

_symmetry_space_group_name_H-M     'P 1'
_symmetry_Int_Tables_number        1
_symmetry_cell_setting             triclinic

_cell_length_a                    22.6523
_cell_length_b                    22.6523
_cell_length_c                    65.9502
_cell_angle_alpha                 90.0000
_cell_angle_beta                  90.0000
_cell_angle_gamma                 120.0000

loop_
_atom_site_label
_atom_site_fract_x
_atom_site_fract_y
_atom_site_fract_z
_atom_site_occupancy
O1       0.00000    0.00000    0.57470   1.00
Zn      0.00000    0.00000    0.54560   1.00
Zn      0.94843    0.04287    0.58357   1.00
Zn      0.09443    0.05157    0.58357   1.00
Zn      0.95713    0.90557    0.58357   1.00
O2       0.93860    0.02610    0.53560   1.00
O2       0.08750    0.06140    0.53560   1.00
O2       0.97390    0.91250    0.53560   1.00
O2       0.91300    0.07160    0.56150   1.00
O2       0.00463    0.12027    0.60077   1.00
O2       0.87413    0.98077    0.60037   1.00
O2       0.15860    0.08700    0.56150   1.00
O2       0.10663    0.12587    0.60037   1.00
O2       0.11563    0.99537    0.60077   1.00
O2       0.92840    0.84140    0.56150   1.00
O2       0.87973    0.88437    0.60077   1.00
O2       0.01923    0.89337    0.60037   1.00
C1       0.91390    0.06020    0.54330   1.00
C1       0.14630    0.08610    0.54330   1.00
C1       0.93980    0.85370    0.54330   1.00
C1       0.06663    0.14397    0.60637   1.00
C1       0.85603    0.92267    0.60637   1.00
C1       0.07733    0.93337    0.60637   1.00
O1       0.00000    0.00000    0.92530   1.00
Zn      0.00000    0.00000    0.95440   1.00
Zn      0.04287    0.94843    0.91643   1.00
Zn      0.05157    0.09443    0.91643   1.00
Zn      0.90557    0.95713    0.91643   1.00
O2       0.02610    0.93860    0.96440   1.00
O2       0.06140    0.08750    0.96440   1.00
O2       0.91250    0.97390    0.96440   1.00
O2       0.07160    0.91300    0.93850   1.00
O2       0.12027    0.00463    0.89923   1.00
O2       0.98077    0.87413    0.89963   1.00
O2       0.08700    0.15860    0.93850   1.00
O2       0.12587    0.10663    0.89963   1.00
O2       0.99537    0.11563    0.89923   1.00
O2       0.84140    0.92840    0.93850   1.00
O2       0.88437    0.87973    0.89923   1.00
O2       0.89337    0.01923    0.89963   1.00
C1       0.06020    0.91390    0.95670   1.00
C1       0.08610    0.14630    0.95670   1.00
C1       0.85370    0.93980    0.95670   1.00
C1       0.14397    0.06663    0.89363   1.00
C1       0.92267    0.85603    0.89363   1.00
C1       0.93337    0.07733    0.89363   1.00
O1       0.00000    0.00000    0.42530   1.00
Zn      0.00000    0.00000    0.45440   1.00
Zn      0.05157    0.95713    0.41643   1.00
Zn      0.90557    0.94843    0.41643   1.00
Zn      0.04287    0.09443    0.41643   1.00
O2       0.06140    0.97390    0.46440   1.00
O2       0.91250    0.93860    0.46440   1.00
O2       0.02610    0.08750    0.46440   1.00
O2       0.08700    0.92840    0.43850   1.00
O2       0.99537    0.87973    0.39923   1.00
O2       0.12587    0.01923    0.39963   1.00
O2       0.84140    0.91300    0.43850   1.00
O2       0.89337    0.87413    0.39963   1.00
O2       0.88437    0.00463    0.39923   1.00
O2       0.07160    0.15860    0.43850   1.00
O2       0.12027    0.11563    0.39923   1.00
O2       0.98077    0.10663    0.39963   1.00
C1       0.08610    0.93980    0.45670   1.00
C1       0.85370    0.91390    0.45670   1.00
C1       0.06020    0.14630    0.45670   1.00
C1       0.93337    0.85603    0.39363   1.00
C1       0.14397    0.07733    0.39363   1.00
C1       0.92267    0.06663    0.39363   1.00
O1       0.00000    0.00000    0.07470   1.00
Zn      0.00000    0.00000    0.04560   1.00
Zn      0.95713    0.05157    0.08357   1.00
Zn      0.94843    0.90557    0.08357   1.00
Zn      0.09443    0.04287    0.08357   1.00
O2       0.97390    0.06140    0.03560   1.00
O2       0.93860    0.91250    0.03560   1.00
O2       0.08750    0.02610    0.03560   1.00
O2       0.92840    0.08700    0.06150   1.00
O2       0.87973    0.99537    0.10077   1.00
O2       0.01923    0.12587    0.10037   1.00
O2       0.91300    0.84140    0.06150   1.00
O2       0.87413    0.89337    0.10037   1.00
O2       0.00463    0.88437    0.10077   1.00
O2       0.15860    0.07160    0.06150   1.00
O2       0.11563    0.12027    0.10077   1.00
O2       0.10663    0.98077    0.10037   1.00
C1       0.93980    0.08610    0.04330   1.00
C1       0.91390    0.85370    0.04330   1.00
C1       0.14630    0.06020    0.04330   1.00
C1       0.85603    0.93337    0.10637   1.00
C1       0.07733    0.14397    0.10637   1.00
C1       0.06663    0.92267    0.10637   1.00
O1       0.66667    0.33333    0.90803   1.00
Zn      0.66667    0.33333    0.87893   1.00
Zn      0.61510    0.37620    0.91690   1.00
Zn      0.76110    0.38490    0.91690   1.00
Zn      0.62380    0.23890    0.91690   1.00
O2       0.60527    0.35943    0.86893   1.00
O2       0.75417    0.39473    0.86893   1.00
O2       0.64057    0.24583    0.86893   1.00
O2       0.57967    0.40493    0.89483   1.00
O2       0.67130    0.45360    0.93410   1.00
O2       0.54080    0.31410    0.93370   1.00
O2       0.82527    0.42033    0.89483   1.00
O2       0.77330    0.45920    0.93370   1.00
O2       0.78230    0.32870    0.93410   1.00
O2       0.59507    0.17473    0.89483   1.00
O2       0.54640    0.21770    0.93410   1.00
O2       0.68590    0.22670    0.93370   1.00
C1       0.58057    0.39353    0.87663   1.00
C1       0.81297    0.41943    0.87663   1.00
C1       0.60647    0.18703    0.87663   1.00
C1       0.73330    0.47730    0.93970   1.00
C1       0.52270    0.25600    0.93970   1.00
C1       0.74400    0.26670    0.93970   1.00
O1       0.66667    0.33333    0.25863   1.00
Zn      0.66667    0.33333    0.28773   1.00
Zn      0.70953    0.28177    0.24977   1.00
Zn      0.71823    0.42777    0.24977   1.00
Zn      0.57223    0.29047    0.24977   1.00
O2       0.69277    0.27193    0.29773   1.00
O2       0.72807    0.42083    0.29773   1.00
O2       0.57917    0.30723    0.29773   1.00
O2       0.73827    0.24633    0.27183   1.00
O2       0.78693    0.33797    0.23257   1.00
O2       0.64743    0.20747    0.23297   1.00
O2       0.75367    0.49193    0.27183   1.00
O2       0.79253    0.43997    0.23297   1.00
O2       0.66203    0.44897    0.23257   1.00
O2       0.50807    0.26173    0.27183   1.00
O2       0.55103    0.21307    0.23257   1.00
O2       0.56003    0.35257    0.23297   1.00
C1       0.72687    0.24723    0.29003   1.00
C1       0.75277    0.47963    0.29003   1.00
C1       0.52037    0.27313    0.29003   1.00
C1       0.81063    0.39997    0.22697   1.00
C1       0.58933    0.18937    0.22697   1.00
C1       0.60003    0.41067    0.22697   1.00
O1       0.66667    0.33333    0.75863   1.00
Zn      0.66667    0.33333    0.78773   1.00
Zn      0.71823    0.29047    0.74977   1.00
Zn      0.57223    0.28177    0.74977   1.00
Zn      0.70953    0.42777    0.74977   1.00
O2       0.72807    0.30723    0.79773   1.00
O2       0.57917    0.27193    0.79773   1.00
O2       0.69277    0.42083    0.79773   1.00
O2       0.75367    0.26173    0.77183   1.00
O2       0.66203    0.21307    0.73257   1.00
O2       0.79253    0.35257    0.73297   1.00
O2       0.50807    0.24633    0.77183   1.00
O2       0.56003    0.20747    0.73297   1.00
O2       0.55103    0.33797    0.73257   1.00
O2       0.73827    0.49193    0.77183   1.00
O2       0.78693    0.44897    0.73257   1.00
O2       0.64743    0.43997    0.73297   1.00
C1       0.75277    0.27313    0.79003   1.00
C1       0.52037    0.24723    0.79003   1.00
C1       0.72687    0.47963    0.79003   1.00
C1       0.60003    0.18937    0.72697   1.00
C1       0.81063    0.41067    0.72697   1.00
C1       0.58933    0.39997    0.72697   1.00
O1       0.66667    0.33333    0.40803   1.00
Zn      0.66667    0.33333    0.37893   1.00
Zn      0.62380    0.38490    0.41690   1.00
Zn      0.61510    0.23890    0.41690   1.00
Zn      0.76110    0.37620    0.41690   1.00
O2       0.64057    0.39473    0.36893   1.00
O2       0.60527    0.24583    0.36893   1.00
O2       0.75417    0.35943    0.36893   1.00
O2       0.59507    0.42033    0.39483   1.00
O2       0.54640    0.32870    0.43410   1.00
O2       0.68590    0.45920    0.43370   1.00
O2       0.57967    0.17473    0.39483   1.00
O2       0.54080    0.22670    0.43370   1.00
O2       0.67130    0.21770    0.43410   1.00
O2       0.82527    0.40493    0.39483   1.00
O2       0.78230    0.45360    0.43410   1.00
O2       0.77330    0.31410    0.43370   1.00
C1       0.60647    0.41943    0.37663   1.00
C1       0.58057    0.18703    0.37663   1.00
C1       0.81297    0.39353    0.37663   1.00
C1       0.52270    0.26670    0.43970   1.00
C1       0.74400    0.47730    0.43970   1.00
C1       0.73330    0.25600    0.43970   1.00
O1       0.33333    0.66667    0.24137   1.00
Zn      0.33333    0.66667    0.21227   1.00
Zn      0.28177    0.70953    0.25023   1.00
Zn      0.42777    0.71823    0.25023   1.00
Zn      0.29047    0.57223    0.25023   1.00
O2       0.27193    0.69277    0.20227   1.00
O2       0.42083    0.72807    0.20227   1.00
O2       0.30723    0.57917    0.20227   1.00
O2       0.24633    0.73827    0.22817   1.00
O2       0.33797    0.78693    0.26743   1.00
O2       0.20747    0.64743    0.26703   1.00
O2       0.49193    0.75367    0.22817   1.00
O2       0.43997    0.79253    0.26703   1.00
O2       0.44897    0.66203    0.26743   1.00
O2       0.26173    0.50807    0.22817   1.00
O2       0.21307    0.55103    0.26743   1.00
O2       0.35257    0.56003    0.26703   1.00
C1       0.24723    0.72687    0.20997   1.00
C1       0.47963    0.75277    0.20997   1.00
C1       0.27313    0.52037    0.20997   1.00
C1       0.39997    0.81063    0.27303   1.00
C1       0.18937    0.58933    0.27303   1.00
C1       0.41067    0.60003    0.27303   1.00
O1       0.33333    0.66667    0.59197   1.00
Zn      0.33333    0.66667    0.62107   1.00
Zn      0.37620    0.61510    0.58310   1.00
Zn      0.38490    0.76110    0.58310   1.00
Zn      0.23890    0.62380    0.58310   1.00
O2       0.35943    0.60527    0.63107   1.00
O2       0.39473    0.75417    0.63107   1.00
O2       0.24583    0.64057    0.63107   1.00
O2       0.40493    0.57967    0.60517   1.00
O2       0.45360    0.67130    0.56590   1.00
O2       0.31410    0.54080    0.56630   1.00
O2       0.42033    0.82527    0.60517   1.00
O2       0.45920    0.77330    0.56630   1.00
O2       0.32870    0.78230    0.56590   1.00
O2       0.17473    0.59507    0.60517   1.00
O2       0.21770    0.54640    0.56590   1.00
O2       0.22670    0.68590    0.56630   1.00
C1       0.39353    0.58057    0.62337   1.00
C1       0.41943    0.81297    0.62337   1.00
C1       0.18703    0.60647    0.62337   1.00
C1       0.47730    0.73330    0.56030   1.00
C1       0.25600    0.52270    0.56030   1.00
C1       0.26670    0.74400    0.56030   1.00
O1       0.33333    0.66667    0.09197   1.00
Zn      0.33333    0.66667    0.12107   1.00
Zn      0.38490    0.62380    0.08310   1.00
Zn      0.23890    0.61510    0.08310   1.00
Zn      0.37620    0.76110    0.08310   1.00
O2       0.39473    0.64057    0.13107   1.00
O2       0.24583    0.60527    0.13107   1.00
O2       0.35943    0.75417    0.13107   1.00
O2       0.42033    0.59507    0.10517   1.00
O2       0.32870    0.54640    0.06590   1.00
O2       0.45920    0.68590    0.06630   1.00
O2       0.17473    0.57967    0.10517   1.00
O2       0.22670    0.54080    0.06630   1.00
O2       0.21770    0.67130    0.06590   1.00
O2       0.40493    0.82527    0.10517   1.00
O2       0.45360    0.78230    0.06590   1.00
O2       0.31410    0.77330    0.06630   1.00
C1       0.41943    0.60647    0.12337   1.00
C1       0.18703    0.58057    0.12337   1.00
C1       0.39353    0.81297    0.12337   1.00
C1       0.26670    0.52270    0.06030   1.00
C1       0.47730    0.74400    0.06030   1.00
C1       0.25600    0.73330    0.06030   1.00
O1       0.33333    0.66667    0.74137   1.00
Zn      0.33333    0.66667    0.71227   1.00
Zn      0.29047    0.71823    0.75023   1.00
Zn      0.28177    0.57223    0.75023   1.00
Zn      0.42777    0.70953    0.75023   1.00
O2       0.30723    0.72807    0.70227   1.00
O2       0.27193    0.57917    0.70227   1.00
O2       0.42083    0.69277    0.70227   1.00
O2       0.26173    0.75367    0.72817   1.00
O2       0.21307    0.66203    0.76743   1.00
O2       0.35257    0.79253    0.76703   1.00
O2       0.24633    0.50807    0.72817   1.00
O2       0.20747    0.56003    0.76703   1.00
O2       0.33797    0.55103    0.76743   1.00
O2       0.49193    0.73827    0.72817   1.00
O2       0.44897    0.78693    0.76743   1.00
O2       0.43997    0.64743    0.76703   1.00
C1       0.27313    0.75277    0.70997   1.00
C1       0.24723    0.52037    0.70997   1.00
C1       0.47963    0.72687    0.70997   1.00
C1       0.18937    0.60003    0.77303   1.00
C1       0.41067    0.81063    0.77303   1.00
C1       0.39997    0.58933    0.77303   1.00
C2       0.78301    0.53951    0.45363   1.00
C3       0.76667    0.58825    0.45431   1.00
H1       0.73634    0.58789    0.44474   1.00
C3       0.82594    0.53995    0.46809   1.00
H1       0.83726    0.50574    0.46808   1.00
C3a      0.79272    0.63914    0.46866   1.00
H1       0.78115    0.67314    0.46919   1.00
C3b      0.85321    0.58990    0.48282   1.00
H1       0.88182    0.58932    0.49284   1.00
C6       0.83575    0.63966    0.48346   1.00
C6       0.86385    0.69283    0.49944   1.00
C3c      0.82800    0.68446    0.51726   1.00
H1       0.78873    0.64319    0.51994   1.00
C3d      0.92605    0.75126    0.49567   1.00
H1       0.95110    0.75883    0.48382   1.00
C3       0.85423    0.73656    0.53142   1.00
H1       0.83085    0.73068    0.54355   1.00
C3       0.94895    0.80373    0.51094   1.00
H1       0.98974    0.84405    0.50882   1.00
C2       0.91370    0.79640    0.52810   1.00
C2       0.46049    0.24350    0.45363   1.00
C3       0.41175    0.17842    0.45431   1.00
H1       0.41211    0.14845    0.44474   1.00
C3       0.46005    0.28599    0.46809   1.00
H1       0.49426    0.33152    0.46808   1.00
C3a      0.36086    0.15358    0.46866   1.00
H1       0.32686    0.10801    0.46919   1.00
C3b      0.41010    0.26331    0.48282   1.00
H1       0.41068    0.29250    0.49284   1.00
C6       0.36034    0.19609    0.48346   1.00
C6       0.30717    0.17102    0.49944   1.00
C3c      0.31554    0.14354    0.51726   1.00
H1       0.35681    0.14554    0.51994   1.00
C3d      0.24874    0.17479    0.49567   1.00
H1       0.24117    0.19227    0.48382   1.00
C3       0.26344    0.11767    0.53142   1.00
H1       0.26932    0.10017    0.54355   1.00
C3       0.19627    0.14522    0.51094   1.00
H1       0.15595    0.14569    0.50882   1.00
C2       0.20360    0.11730    0.52810   1.00
C2       0.75650    0.21699    0.45363   1.00
C3       0.82158    0.23333    0.45431   1.00
H1       0.85155    0.26366    0.44474   1.00
C3       0.71401    0.17406    0.46809   1.00
H1       0.66848    0.16274    0.46808   1.00
C3a      0.84642    0.20728    0.46866   1.00
H1       0.89199    0.21885    0.46919   1.00
C3b      0.73669    0.14679    0.48282   1.00
H1       0.70750    0.11818    0.49284   1.00
C6       0.80391    0.16425    0.48346   1.00
C6       0.82898    0.13615    0.49944   1.00
C3c      0.85646    0.17200    0.51726   1.00
H1       0.85446    0.21127    0.51994   1.00
C3d      0.82521    0.07395    0.49567   1.00
H1       0.80773    0.04890    0.48382   1.00
C3       0.88233    0.14577    0.53142   1.00
H1       0.89983    0.16915    0.54355   1.00
C3       0.85478    0.05105    0.51094   1.00
H1       0.85431    0.01026    0.50882   1.00
C2       0.88270    0.08630    0.52810   1.00
C2       0.53951    0.78301    0.04637   1.00
C3       0.58825    0.76667    0.04569   1.00
H1       0.58789    0.73634    0.05526   1.00
C3       0.53995    0.82594    0.03191   1.00
H1       0.50574    0.83726    0.03192   1.00
C3a      0.63914    0.79272    0.03134   1.00
H1       0.67314    0.78115    0.03081   1.00
C3b      0.58990    0.85321    0.01718   1.00
H1       0.58932    0.88182    0.00716   1.00
C6       0.63966    0.83575    0.01654   1.00
C6       0.69283    0.86385    0.00056   1.00
C3c      0.68446    0.82800    0.98274   1.00
H1       0.64319    0.78873    0.98006   1.00
C3d      0.75126    0.92605    0.00433   1.00
H1       0.75883    0.95110    0.01618   1.00
C3       0.73656    0.85423    0.96858   1.00
H1       0.73068    0.83085    0.95645   1.00
C3       0.80373    0.94895    0.98906   1.00
H1       0.84405    0.98974    0.99118   1.00
C2       0.79640    0.91370    0.97190   1.00
C2       0.24350    0.46049    0.04637   1.00
C3       0.17842    0.41175    0.04569   1.00
H1       0.14845    0.41211    0.05526   1.00
C3       0.28599    0.46005    0.03191   1.00
H1       0.33152    0.49426    0.03192   1.00
C3a      0.15358    0.36086    0.03134   1.00
H1       0.10801    0.32686    0.03081   1.00
C3b      0.26331    0.41010    0.01718   1.00
H1       0.29250    0.41068    0.00716   1.00
C6       0.19609    0.36034    0.01654   1.00
C6       0.17102    0.30717    0.00056   1.00
C3c      0.14354    0.31554    0.98274   1.00
H1       0.14554    0.35681    0.98006   1.00
C3d      0.17479    0.24874    0.00433   1.00
H1       0.19227    0.24117    0.01618   1.00
C3       0.11767    0.26344    0.96858   1.00
H1       0.10017    0.26932    0.95645   1.00
C3       0.14522    0.19627    0.98906   1.00
H1       0.14569    0.15595    0.99118   1.00
C2       0.11730    0.20360    0.97190   1.00
C2       0.21699    0.75650    0.04637   1.00
C3       0.23333    0.82158    0.04569   1.00
H1       0.26366    0.85155    0.05526   1.00
C3       0.17406    0.71401    0.03191   1.00
H1       0.16274    0.66848    0.03192   1.00
C3a      0.20728    0.84642    0.03134   1.00
H1       0.21885    0.89199    0.03081   1.00
C3b      0.14679    0.73669    0.01718   1.00
H1       0.11818    0.70750    0.00716   1.00
C6       0.16425    0.80391    0.01654   1.00
C6       0.13615    0.82898    0.00056   1.00
C3c      0.17200    0.85646    0.98274   1.00
H1       0.21127    0.85446    0.98006   1.00
C3d      0.07395    0.82521    0.00433   1.00
H1       0.04890    0.80773    0.01618   1.00
C3       0.14577    0.88233    0.96858   1.00
H1       0.16915    0.89983    0.95645   1.00
C3       0.05105    0.85478    0.98906   1.00
H1       0.01026    0.85431    0.99118   1.00
C2       0.08630    0.88270    0.97190   1.00
C2       0.21699    0.46049    0.54637   1.00
C3       0.23333    0.41175    0.54569   1.00
H1       0.26366    0.41211    0.55526   1.00
C3       0.17406    0.46005    0.53191   1.00
H1       0.16274    0.49426    0.53192   1.00
C3a      0.20728    0.36086    0.53134   1.00
H1       0.21885    0.32686    0.53081   1.00
C3b      0.14679    0.41010    0.51718   1.00
H1       0.11818    0.41068    0.50716   1.00
C6       0.16425    0.36034    0.51654   1.00
C6       0.13615    0.30717    0.50056   1.00
C3c      0.17200    0.31554    0.48274   1.00
H1       0.21127    0.35681    0.48006   1.00
C3d      0.07395    0.24874    0.50433   1.00
H1       0.04890    0.24117    0.51618   1.00
C3       0.14577    0.26344    0.46858   1.00
H1       0.16915    0.26932    0.45645   1.00
C3       0.05105    0.19627    0.48906   1.00
H1       0.01026    0.15595    0.49118   1.00
C2       0.08630    0.20360    0.47190   1.00
C2       0.53951    0.75650    0.54637   1.00
C3       0.58825    0.82158    0.54569   1.00
H1       0.58789    0.85155    0.55526   1.00
C3       0.53995    0.71401    0.53191   1.00
H1       0.50574    0.66848    0.53192   1.00
C3a      0.63914    0.84642    0.53134   1.00
H1       0.67314    0.89199    0.53081   1.00
C3b      0.58990    0.73669    0.51718   1.00
H1       0.58932    0.70750    0.50716   1.00
C6       0.63966    0.80391    0.51654   1.00
C6       0.69283    0.82898    0.50056   1.00
C3c      0.68446    0.85646    0.48274   1.00
H1       0.64319    0.85446    0.48006   1.00
C3d      0.75126    0.82521    0.50433   1.00
H1       0.75883    0.80773    0.51618   1.00
C3       0.73656    0.88233    0.46858   1.00
H1       0.73068    0.89983    0.45645   1.00
C3       0.80373    0.85478    0.48906   1.00
H1       0.84405    0.85431    0.49118   1.00
C2       0.79640    0.88270    0.47190   1.00
C2       0.24350    0.78301    0.54637   1.00
C3       0.17842    0.76667    0.54569   1.00
H1       0.14845    0.73634    0.55526   1.00
C3       0.28599    0.82594    0.53191   1.00
H1       0.33152    0.83726    0.53192   1.00
C3a      0.15358    0.79272    0.53134   1.00
H1       0.10801    0.78115    0.53081   1.00
C3b      0.26331    0.85321    0.51718   1.00
H1       0.29250    0.88182    0.50716   1.00
C6       0.19609    0.83575    0.51654   1.00
C6       0.17102    0.86385    0.50056   1.00
C3c      0.14354    0.82800    0.48274   1.00
H1       0.14554    0.78873    0.48006   1.00
C3d      0.17479    0.92605    0.50433   1.00
H1       0.19227    0.95110    0.51618   1.00
C3       0.11767    0.85423    0.46858   1.00
H1       0.10017    0.83085    0.45645   1.00
C3       0.14522    0.94895    0.48906   1.00
H1       0.14569    0.98974    0.49118   1.00
C2       0.11730    0.91370    0.47190   1.00
C2       0.46049    0.21699    0.95363   1.00
C3       0.41175    0.23333    0.95431   1.00
H1       0.41211    0.26366    0.94474   1.00
C3       0.46005    0.17406    0.96809   1.00
H1       0.49426    0.16274    0.96808   1.00
C3a      0.36086    0.20728    0.96866   1.00
H1       0.32686    0.21885    0.96919   1.00
C3b      0.41010    0.14679    0.98282   1.00
H1       0.41068    0.11818    0.99284   1.00
C6       0.36034    0.16425    0.98346   1.00
C6       0.30717    0.13615    0.99944   1.00
C3c      0.31554    0.17200    0.01726   1.00
H1       0.35681    0.21127    0.01994   1.00
C3d      0.24874    0.07395    0.99567   1.00
H1       0.24117    0.04890    0.98382   1.00
C3       0.26344    0.14577    0.03142   1.00
H1       0.26932    0.16915    0.04355   1.00
C3       0.19627    0.05105    0.01094   1.00
H1       0.15595    0.01026    0.00882   1.00
C2       0.20360    0.08630    0.02810   1.00
C2       0.75650    0.53951    0.95363   1.00
C3       0.82158    0.58825    0.95431   1.00
H1       0.85155    0.58789    0.94474   1.00
C3       0.71401    0.53995    0.96809   1.00
H1       0.66848    0.50574    0.96808   1.00
C3a      0.84642    0.63914    0.96866   1.00
H1       0.89199    0.67314    0.96919   1.00
C3b      0.73669    0.58990    0.98282   1.00
H1       0.70750    0.58932    0.99284   1.00
C6       0.80391    0.63966    0.98346   1.00
C6       0.82898    0.69283    0.99944   1.00
C3c      0.85646    0.68446    0.01726   1.00
H1       0.85446    0.64319    0.01994   1.00
C3d      0.82521    0.75126    0.99567   1.00
H1       0.80773    0.75883    0.98382   1.00
C3       0.88233    0.73656    0.03142   1.00
H1       0.89983    0.73068    0.04355   1.00
C3       0.85478    0.80373    0.01094   1.00
H1       0.85431    0.84405    0.00882   1.00
C2       0.88270    0.79640    0.02810   1.00
C2       0.78301    0.24350    0.95363   1.00
C3       0.76667    0.17842    0.95431   1.00
H1       0.73634    0.14845    0.94474   1.00
C3       0.82594    0.28599    0.96809   1.00
H1       0.83726    0.33152    0.96808   1.00
C3a      0.79272    0.15358    0.96866   1.00
H1       0.78115    0.10801    0.96919   1.00
C3b      0.85321    0.26331    0.98282   1.00
H1       0.88182    0.29250    0.99284   1.00
C6       0.83575    0.19609    0.98346   1.00
C6       0.86385    0.17102    0.99944   1.00
C3c      0.82800    0.14354    0.01726   1.00
H1       0.78873    0.14554    0.01994   1.00
C3d      0.92605    0.17479    0.99567   1.00
H1       0.95110    0.19227    0.98382   1.00
C3       0.85423    0.11767    0.03142   1.00
H1       0.83085    0.10017    0.04355   1.00
C3       0.94895    0.14522    0.01094   1.00
H1       0.98974    0.14569    0.00882   1.00
C2       0.91370    0.11730    0.02810   1.00
C2       0.44968    0.87284    0.78696   1.00
C3       0.43334    0.92158    0.78764   1.00
H1       0.40301    0.92122    0.77807   1.00
C3       0.49261    0.87328    0.80142   1.00
H1       0.50393    0.83907    0.80141   1.00
C3a      0.45939    0.97247    0.80199   1.00
H1       0.44782    1.00647    0.80252   1.00
C3b      0.51988    0.92323    0.81615   1.00
H1       0.54849    0.92265    0.82617   1.00
C6       0.50242    0.97299    0.81679   1.00
C6       0.53052    0.02616    0.83277   1.00
C3c      0.49467    0.01779    0.85059   1.00
H1       0.45540    -0.02348   0.85327   1.00
C3d      0.59272    0.08459    0.82900   1.00
H1       0.61777    0.09216    0.81715   1.00
C3       0.52090    0.06989    0.86475   1.00
H1       0.49752    0.06401    0.87688   1.00
C3       0.61562    0.13706    0.84427   1.00
H1       0.65641    0.17738    0.84215   1.00
C2       0.58037    0.12973    0.86143   1.00
C2       0.12716    0.57683    0.78696   1.00
C3       0.07842    0.51175    0.78764   1.00
H1       0.07878    0.48178    0.77807   1.00
C3       0.12672    0.61932    0.80142   1.00
H1       0.16093    0.66485    0.80141   1.00
C3a      0.02753    0.48691    0.80199   1.00
H1       -0.00647   0.44134    0.80252   1.00
C3b      0.07677    0.59664    0.81615   1.00
H1       0.07735    0.62583    0.82617   1.00
C6       0.02701    0.52942    0.81679   1.00
C6       0.97384    0.50435    0.83277   1.00
C3c      0.98221    0.47687    0.85059   1.00
H1       1.02348    0.47887    0.85327   1.00
C3d      0.91541    0.50812    0.82900   1.00
H1       0.90784    0.52560    0.81715   1.00
C3       0.93011    0.45100    0.86475   1.00
H1       0.93599    0.43350    0.87688   1.00
C3       0.86294    0.47855    0.84427   1.00
H1       0.82262    0.47902    0.84215   1.00
C2       0.87027    0.45063    0.86143   1.00
C2       0.42317    0.55032    0.78696   1.00
C3       0.48825    0.56666    0.78764   1.00
H1       0.51822    0.59699    0.77807   1.00
C3       0.38068    0.50739    0.80142   1.00
H1       0.33515    0.49607    0.80141   1.00
C3a      0.51309    0.54061    0.80199   1.00
H1       0.55866    0.55218    0.80252   1.00
C3b      0.40336    0.48012    0.81615   1.00
H1       0.37417    0.45151    0.82617   1.00
C6       0.47058    0.49758    0.81679   1.00
C6       0.49565    0.46948    0.83277   1.00
C3c      0.52313    0.50533    0.85059   1.00
H1       0.52113    0.54460    0.85327   1.00
C3d      0.49188    0.40728    0.82900   1.00
H1       0.47440    0.38223    0.81715   1.00
C3       0.54900    0.47910    0.86475   1.00
H1       0.56650    0.50248    0.87688   1.00
C3       0.52145    0.38438    0.84427   1.00
H1       0.52098    0.34359    0.84215   1.00
C2       0.54937    0.41963    0.86143   1.00
C2       0.20618    0.11634    0.37970   1.00
C3       0.25492    0.10000    0.37902   1.00
H1       0.25456    0.06967    0.38859   1.00
C3       0.20662    0.15927    0.36524   1.00
H1       0.17241    0.17059    0.36525   1.00
C3a      0.30581    0.12605    0.36467   1.00
H1       0.33981    0.11448    0.36414   1.00
C3b      0.25657    0.18654    0.35051   1.00
H1       0.25599    0.21515    0.34049   1.00
C6       0.30633    0.16908    0.34987   1.00
C6       0.35950    0.19718    0.33389   1.00
C3c      0.35113    0.16133    0.31607   1.00
H1       0.30986    0.12206    0.31339   1.00
C3d      0.41793    0.25938    0.33766   1.00
H1       0.42550    0.28443    0.34951   1.00
C3       0.40323    0.18756    0.30191   1.00
H1       0.39735    0.16418    0.28978   1.00
C3       0.47040    0.28228    0.32239   1.00
H1       0.51072    0.32307    0.32451   1.00
C2       0.46307    0.24703    0.30523   1.00
C2       0.91017    0.79382    0.37970   1.00
C3       0.84509    0.74508    0.37902   1.00
H1       0.81512    0.74544    0.38859   1.00
C3       0.95266    0.79338    0.36524   1.00
H1       0.99819    0.82759    0.36525   1.00
C3a      0.82025    0.69419    0.36467   1.00
H1       0.77468    0.66019    0.36414   1.00
C3b      0.92998    0.74343    0.35051   1.00
H1       0.95917    0.74401    0.34049   1.00
C6       0.86276    0.69367    0.34987   1.00
C6       0.83769    0.64050    0.33389   1.00
C3c      0.81021    0.64887    0.31607   1.00
H1       0.81221    0.69014    0.31339   1.00
C3d      0.84146    0.58207    0.33766   1.00
H1       0.85894    0.57450    0.34951   1.00
C3       0.78434    0.59677    0.30191   1.00
H1       0.76684    0.60265    0.28978   1.00
C3       0.81189    0.52960    0.32239   1.00
H1       0.81236    0.48928    0.32451   1.00
C2       0.78397    0.53693    0.30523   1.00
C2       0.88366    0.08983    0.37970   1.00
C3       0.90000    0.15491    0.37902   1.00
H1       0.93033    0.18488    0.38859   1.00
C3       0.84073    0.04734    0.36524   1.00
H1       0.82941    0.00181    0.36525   1.00
C3a      0.87395    0.17975    0.36467   1.00
H1       0.88552    0.22532    0.36414   1.00
C3b      0.81346    0.07002    0.35051   1.00
H1       0.78485    0.04083    0.34049   1.00
C6       0.83092    0.13724    0.34987   1.00
C6       0.80282    0.16231    0.33389   1.00
C3c      0.83867    0.18979    0.31607   1.00
H1       0.87794    0.18779    0.31339   1.00
C3d      0.74062    0.15854    0.33766   1.00
H1       0.71557    0.14106    0.34951   1.00
C3       0.81244    0.21566    0.30191   1.00
H1       0.83582    0.23316    0.28978   1.00
C3       0.71772    0.18811    0.32239   1.00
H1       0.67693    0.18764    0.32451   1.00
C2       0.75297    0.21603    0.30523   1.00
C2       0.88366    0.79382    0.87970   1.00
C3       0.90000    0.74508    0.87902   1.00
H1       0.93033    0.74544    0.88859   1.00
C3       0.84073    0.79338    0.86524   1.00
H1       0.82941    0.82759    0.86525   1.00
C3a      0.87395    0.69419    0.86467   1.00
H1       0.88552    0.66019    0.86414   1.00
C3b      0.81346    0.74343    0.85051   1.00
H1       0.78485    0.74401    0.84049   1.00
C6       0.83092    0.69367    0.84987   1.00
C6       0.80282    0.64050    0.83389   1.00
C3c      0.83867    0.64887    0.81607   1.00
H1       0.87794    0.69014    0.81339   1.00
C3d      0.74062    0.58207    0.83766   1.00
H1       0.71557    0.57450    0.84951   1.00
C3       0.81244    0.59677    0.80191   1.00
H1       0.83582    0.60265    0.78978   1.00
C3       0.71772    0.52960    0.82239   1.00
H1       0.67693    0.48928    0.82451   1.00
C2       0.75297    0.53693    0.80523   1.00
C2       0.20618    0.08983    0.87970   1.00
C3       0.25492    0.15491    0.87902   1.00
H1       0.25456    0.18488    0.88859   1.00
C3       0.20662    0.04734    0.86524   1.00
H1       0.17241    0.00181    0.86525   1.00
C3a      0.30581    0.17975    0.86467   1.00
H1       0.33981    0.22532    0.86414   1.00
C3b      0.25657    0.07002    0.85051   1.00
H1       0.25599    0.04083    0.84049   1.00
C6       0.30633    0.13724    0.84987   1.00
C6       0.35950    0.16231    0.83389   1.00
C3c      0.35113    0.18979    0.81607   1.00
H1       0.30986    0.18779    0.81339   1.00
C3d      0.41793    0.15854    0.83766   1.00
H1       0.42550    0.14106    0.84951   1.00
C3       0.40323    0.21566    0.80191   1.00
H1       0.39735    0.23316    0.78978   1.00
C3       0.47040    0.18811    0.82239   1.00
H1       0.51072    0.18764    0.82451   1.00
C2       0.46307    0.21603    0.80523   1.00
C2       0.91017    0.11634    0.87970   1.00
C3       0.84509    0.10000    0.87902   1.00
H1       0.81512    0.06967    0.88859   1.00
C3       0.95266    0.15927    0.86524   1.00
H1       0.99819    0.17059    0.86525   1.00
C3a      0.82025    0.12605    0.86467   1.00
H1       0.77468    0.11448    0.86414   1.00
C3b      0.92998    0.18654    0.85051   1.00
H1       0.95917    0.21515    0.84049   1.00
C6       0.86276    0.16908    0.84987   1.00
C6       0.83769    0.19718    0.83389   1.00
C3c      0.81021    0.16133    0.81607   1.00
H1       0.81221    0.12206    0.81339   1.00
C3d      0.84146    0.25938    0.83766   1.00
H1       0.85894    0.28443    0.84951   1.00
C3       0.78434    0.18756    0.80191   1.00
H1       0.76684    0.16418    0.78978   1.00
C3       0.81189    0.28228    0.82239   1.00
H1       0.81236    0.32307    0.82451   1.00
C2       0.78397    0.24703    0.80523   1.00
C2       0.12716    0.55032    0.28696   1.00
C3       0.07842    0.56666    0.28764   1.00
H1       0.07878    0.59699    0.27807   1.00
C3       0.12672    0.50739    0.30142   1.00
H1       0.16093    0.49607    0.30141   1.00
C3a      0.02753    0.54061    0.30199   1.00
H1       -0.00647   0.55218    0.30252   1.00
C3b      0.07677    0.48012    0.31615   1.00
H1       0.07735    0.45151    0.32617   1.00
C6       0.02701    0.49758    0.31679   1.00
C6       0.97384    0.46948    0.33277   1.00
C3c      0.98221    0.50533    0.35059   1.00
H1       1.02348    0.54460    0.35327   1.00
C3d      0.91541    0.40728    0.32900   1.00
H1       0.90784    0.38223    0.31715   1.00
C3       0.93011    0.47910    0.36475   1.00
H1       0.93599    0.50248    0.37688   1.00
C3       0.86294    0.38438    0.34427   1.00
H1       0.82262    0.34359    0.34215   1.00
C2       0.87027    0.41963    0.36143   1.00
C2       0.42317    0.87284    0.28696   1.00
C3       0.48825    0.92158    0.28764   1.00
H1       0.51822    0.92122    0.27807   1.00
C3       0.38068    0.87328    0.30142   1.00
H1       0.33515    0.83907    0.30141   1.00
C3a      0.51309    0.97247    0.30199   1.00
H1       0.55866    1.00647    0.30252   1.00
C3b      0.40336    0.92323    0.31615   1.00
H1       0.37417    0.92265    0.32617   1.00
C6       0.47058    0.97299    0.31679   1.00
C6       0.49565    0.02616    0.33277   1.00
C3c      0.52313    0.01779    0.35059   1.00
H1       0.52113    -0.02348   0.35327   1.00
C3d      0.49188    0.08459    0.32900   1.00
H1       0.47440    0.09216    0.31715   1.00
C3       0.54900    0.06989    0.36475   1.00
H1       0.56650    0.06401    0.37688   1.00
C3       0.52145    0.13706    0.34427   1.00
H1       0.52098    0.17738    0.34215   1.00
C2       0.54937    0.12973    0.36143   1.00
C2       0.44968    0.57683    0.28696   1.00
C3       0.43334    0.51175    0.28764   1.00
H1       0.40301    0.48178    0.27807   1.00
C3       0.49261    0.61932    0.30142   1.00
H1       0.50393    0.66485    0.30141   1.00
C3a      0.45939    0.48691    0.30199   1.00
H1       0.44782    0.44134    0.30252   1.00
C3b      0.51988    0.59664    0.31615   1.00
H1       0.54849    0.62583    0.32617   1.00
C6       0.50242    0.52942    0.31679   1.00
C6       0.53052    0.50435    0.33277   1.00
C3c      0.49467    0.47687    0.35059   1.00
H1       0.45540    0.47887    0.35327   1.00
C3d      0.59272    0.50812    0.32900   1.00
H1       0.61777    0.52560    0.31715   1.00
C3       0.52090    0.45100    0.36475   1.00
H1       0.49752    0.43350    0.37688   1.00
C3       0.61562    0.47855    0.34427   1.00
H1       0.65641    0.47902    0.34215   1.00
C2       0.58037    0.45063    0.36143   1.00
C2       0.11634    0.20618    0.12030   1.00
C3       0.10000    0.25492    0.12098   1.00
H1       0.06967    0.25456    0.11141   1.00
C3       0.15927    0.20662    0.13476   1.00
H1       0.17059    0.17241    0.13475   1.00
C3a      0.12605    0.30581    0.13533   1.00
H1       0.11448    0.33981    0.13586   1.00
C3b      0.18654    0.25657    0.14949   1.00
H1       0.21515    0.25599    0.15951   1.00
C6       0.16908    0.30633    0.15013   1.00
C6       0.19718    0.35950    0.16611   1.00
C3c      0.16133    0.35113    0.18393   1.00
H1       0.12206    0.30986    0.18661   1.00
C3d      0.25938    0.41793    0.16234   1.00
H1       0.28443    0.42550    0.15049   1.00
C3       0.18756    0.40323    0.19809   1.00
H1       0.16418    0.39735    0.21022   1.00
C3       0.28228    0.47040    0.17761   1.00
H1       0.32307    0.51072    0.17549   1.00
C2       0.24703    0.46307    0.19477   1.00
C2       0.79382    0.91017    0.12030   1.00
C3       0.74508    0.84509    0.12098   1.00
H1       0.74544    0.81512    0.11141   1.00
C3       0.79338    0.95266    0.13476   1.00
H1       0.82759    0.99819    0.13475   1.00
C3a      0.69419    0.82025    0.13533   1.00
H1       0.66019    0.77468    0.13586   1.00
C3b      0.74343    0.92998    0.14949   1.00
H1       0.74401    0.95917    0.15951   1.00
C6       0.69367    0.86276    0.15013   1.00
C6       0.64050    0.83769    0.16611   1.00
C3c      0.64887    0.81021    0.18393   1.00
H1       0.69014    0.81221    0.18661   1.00
C3d      0.58207    0.84146    0.16234   1.00
H1       0.57450    0.85894    0.15049   1.00
C3       0.59677    0.78434    0.19809   1.00
H1       0.60265    0.76684    0.21022   1.00
C3       0.52960    0.81189    0.17761   1.00
H1       0.48928    0.81236    0.17549   1.00
C2       0.53693    0.78397    0.19477   1.00
C2       0.08983    0.88366    0.12030   1.00
C3       0.15491    0.90000    0.12098   1.00
H1       0.18488    0.93033    0.11141   1.00
C3       0.04734    0.84073    0.13476   1.00
H1       0.00181    0.82941    0.13475   1.00
C3a      0.17975    0.87395    0.13533   1.00
H1       0.22532    0.88552    0.13586   1.00
C3b      0.07002    0.81346    0.14949   1.00
H1       0.04083    0.78485    0.15951   1.00
C6       0.13724    0.83092    0.15013   1.00
C6       0.16231    0.80282    0.16611   1.00
C3c      0.18979    0.83867    0.18393   1.00
H1       0.18779    0.87794    0.18661   1.00
C3d      0.15854    0.74062    0.16234   1.00
H1       0.14106    0.71557    0.15049   1.00
C3       0.21566    0.81244    0.19809   1.00
H1       0.23316    0.83582    0.21022   1.00
C3       0.18811    0.71772    0.17761   1.00
H1       0.18764    0.67693    0.17549   1.00
C2       0.21603    0.75297    0.19477   1.00
C2       0.87284    0.44968    0.71304   1.00
C3       0.92158    0.43334    0.71236   1.00
H1       0.92122    0.40301    0.72193   1.00
C3       0.87328    0.49261    0.69858   1.00
H1       0.83907    0.50393    0.69859   1.00
C3a      0.97247    0.45939    0.69801   1.00
H1       1.00647    0.44782    0.69748   1.00
C3b      0.92323    0.51988    0.68385   1.00
H1       0.92265    0.54849    0.67383   1.00
C6       0.97299    0.50242    0.68321   1.00
C6       0.02616    0.53052    0.66723   1.00
C3c      0.01779    0.49467    0.64941   1.00
H1       -0.02348   0.45540    0.64673   1.00
C3d      0.08459    0.59272    0.67100   1.00
H1       0.09216    0.61777    0.68285   1.00
C3       0.06989    0.52090    0.63525   1.00
H1       0.06401    0.49752    0.62312   1.00
C3       0.13706    0.61562    0.65573   1.00
H1       0.17738    0.65641    0.65785   1.00
C2       0.12973    0.58037    0.63857   1.00
C2       0.57683    0.12716    0.71304   1.00
C3       0.51175    0.07842    0.71236   1.00
H1       0.48178    0.07878    0.72193   1.00
C3       0.61932    0.12672    0.69858   1.00
H1       0.66485    0.16093    0.69859   1.00
C3a      0.48691    0.02753    0.69801   1.00
H1       0.44134    -0.00647   0.69748   1.00
C3b      0.59664    0.07677    0.68385   1.00
H1       0.62583    0.07735    0.67383   1.00
C6       0.52942    0.02701    0.68321   1.00
C6       0.50435    0.97384    0.66723   1.00
C3c      0.47687    0.98221    0.64941   1.00
H1       0.47887    1.02348    0.64673   1.00
C3d      0.50812    0.91541    0.67100   1.00
H1       0.52560    0.90784    0.68285   1.00
C3       0.45100    0.93011    0.63525   1.00
H1       0.43350    0.93599    0.62312   1.00
C3       0.47855    0.86294    0.65573   1.00
H1       0.47902    0.82262    0.65785   1.00
C2       0.45063    0.87027    0.63857   1.00
C2       0.55032    0.42317    0.71304   1.00
C3       0.56666    0.48825    0.71236   1.00
H1       0.59699    0.51822    0.72193   1.00
C3       0.50739    0.38068    0.69858   1.00
H1       0.49607    0.33515    0.69859   1.00
C3a      0.54061    0.51309    0.69801   1.00
H1       0.55218    0.55866    0.69748   1.00
C3b      0.48012    0.40336    0.68385   1.00
H1       0.45151    0.37417    0.67383   1.00
C6       0.49758    0.47058    0.68321   1.00
C6       0.46948    0.49565    0.66723   1.00
C3c      0.50533    0.52313    0.64941   1.00
H1       0.54460    0.52113    0.64673   1.00
C3d      0.40728    0.49188    0.67100   1.00
H1       0.38223    0.47440    0.68285   1.00
C3       0.47910    0.54900    0.63525   1.00
H1       0.50248    0.56650    0.62312   1.00
C3       0.38438    0.52145    0.65573   1.00
H1       0.34359    0.52098    0.65785   1.00
C2       0.41963    0.54937    0.63857   1.00
C2       0.55032    0.12716    0.21304   1.00
C3       0.56666    0.07842    0.21236   1.00
H1       0.59699    0.07878    0.22193   1.00
C3       0.50739    0.12672    0.19858   1.00
H1       0.49607    0.16093    0.19859   1.00
C3a      0.54061    0.02753    0.19801   1.00
H1       0.55218    -0.00647   0.19748   1.00
C3b      0.48012    0.07677    0.18385   1.00
H1       0.45151    0.07735    0.17383   1.00
C6       0.49758    0.02701    0.18321   1.00
C6       0.46948    0.97384    0.16723   1.00
C3c      0.50533    0.98221    0.14941   1.00
H1       0.54460    1.02348    0.14673   1.00
C3d      0.40728    0.91541    0.17100   1.00
H1       0.38223    0.90784    0.18285   1.00
C3       0.47910    0.93011    0.13525   1.00
H1       0.50248    0.93599    0.12312   1.00
C3       0.38438    0.86294    0.15573   1.00
H1       0.34359    0.82262    0.15785   1.00
C2       0.41963    0.87027    0.13857   1.00
C2       0.87284    0.42317    0.21304   1.00
C3       0.92158    0.48825    0.21236   1.00
H1       0.92122    0.51822    0.22193   1.00
C3       0.87328    0.38068    0.19858   1.00
H1       0.83907    0.33515    0.19859   1.00
C3a      0.97247    0.51309    0.19801   1.00
H1       1.00647    0.55866    0.19748   1.00
C3b      0.92323    0.40336    0.18385   1.00
H1       0.92265    0.37417    0.17383   1.00
C6       0.97299    0.47058    0.18321   1.00
C6       0.02616    0.49565    0.16723   1.00
C3c      0.01779    0.52313    0.14941   1.00
H1       -0.02348   0.52113    0.14673   1.00
C3d      0.08459    0.49188    0.17100   1.00
H1       0.09216    0.47440    0.18285   1.00
C3       0.06989    0.54900    0.13525   1.00
H1       0.06401    0.56650    0.12312   1.00
C3       0.13706    0.52145    0.15573   1.00
H1       0.17738    0.52098    0.15785   1.00
C2       0.12973    0.54937    0.13857   1.00
C2       0.57683    0.44968    0.21304   1.00
C3       0.51175    0.43334    0.21236   1.00
H1       0.48178    0.40301    0.22193   1.00
C3       0.61932    0.49261    0.19858   1.00
H1       0.66485    0.50393    0.19859   1.00
C3a      0.48691    0.45939    0.19801   1.00
H1       0.44134    0.44782    0.19748   1.00
C3b      0.59664    0.51988    0.18385   1.00
H1       0.62583    0.54849    0.17383   1.00
C6       0.52942    0.50242    0.18321   1.00
C6       0.50435    0.53052    0.16723   1.00
C3c      0.47687    0.49467    0.14941   1.00
H1       0.47887    0.45540    0.14673   1.00
C3d      0.50812    0.59272    0.17100   1.00
H1       0.52560    0.61777    0.18285   1.00
C3       0.45100    0.52090    0.13525   1.00
H1       0.43350    0.49752    0.12312   1.00
C3       0.47855    0.61562    0.15573   1.00
H1       0.47902    0.65641    0.15785   1.00
C2       0.45063    0.58037    0.13857   1.00
C2       0.79382    0.88366    0.62030   1.00
C3       0.74508    0.90000    0.62098   1.00
H1       0.74544    0.93033    0.61141   1.00
C3       0.79338    0.84073    0.63476   1.00
H1       0.82759    0.82941    0.63475   1.00
C3a      0.69419    0.87395    0.63533   1.00
H1       0.66019    0.88552    0.63586   1.00
C3b      0.74343    0.81346    0.64949   1.00
H1       0.74401    0.78485    0.65951   1.00
C6       0.69367    0.83092    0.65013   1.00
C6       0.64050    0.80282    0.66611   1.00
C3c      0.64887    0.83867    0.68393   1.00
H1       0.69014    0.87794    0.68661   1.00
C3d      0.58207    0.74062    0.66234   1.00
H1       0.57450    0.71557    0.65049   1.00
C3       0.59677    0.81244    0.69809   1.00
H1       0.60265    0.83582    0.71022   1.00
C3       0.52960    0.71772    0.67761   1.00
H1       0.48928    0.67693    0.67549   1.00
C2       0.53693    0.75297    0.69477   1.00
C2       0.08983    0.20618    0.62030   1.00
C3       0.15491    0.25492    0.62098   1.00
H1       0.18488    0.25456    0.61141   1.00
C3       0.04734    0.20662    0.63476   1.00
H1       0.00181    0.17241    0.63475   1.00
C3a      0.17975    0.30581    0.63533   1.00
H1       0.22532    0.33981    0.63586   1.00
C3b      0.07002    0.25657    0.64949   1.00
H1       0.04083    0.25599    0.65951   1.00
C6       0.13724    0.30633    0.65013   1.00
C6       0.16231    0.35950    0.66611   1.00
C3c      0.18979    0.35113    0.68393   1.00
H1       0.18779    0.30986    0.68661   1.00
C3d      0.15854    0.41793    0.66234   1.00
H1       0.14106    0.42550    0.65049   1.00
C3       0.21566    0.40323    0.69809   1.00
H1       0.23316    0.39735    0.71022   1.00
C3       0.18811    0.47040    0.67761   1.00
H1       0.18764    0.51072    0.67549   1.00
C2       0.21603    0.46307    0.69477   1.00
C2       0.11634    0.91017    0.62030   1.00
C3       0.10000    0.84509    0.62098   1.00
H1       0.06967    0.81512    0.61141   1.00
C3       0.15927    0.95266    0.63476   1.00
H1       0.17059    0.99819    0.63475   1.00
C3a      0.12605    0.82025    0.63533   1.00
H1       0.11448    0.77468    0.63586   1.00
C3b      0.18654    0.92998    0.64949   1.00
H1       0.21515    0.95917    0.65951   1.00
C6       0.16908    0.86276    0.65013   1.00
C6       0.19718    0.83769    0.66611   1.00
C3c      0.16133    0.81021    0.68393   1.00
H1       0.12206    0.81221    0.68661   1.00
C3d      0.25938    0.84146    0.66234   1.00
H1       0.28443    0.85894    0.65049   1.00
C3       0.18756    0.78434    0.69809   1.00
H1       0.16418    0.76684    0.71022   1.00
C3       0.28228    0.81189    0.67761   1.00
H1       0.32307    0.81236    0.67549   1.00
C2       0.24703    0.78397    0.69477   1.00
