data_IRMOF10_interpen_symm_ligand11cp_label_i_1.

_audit_creation_method             'generated by an auxiliary program of Tobunporous'

_symmetry_space_group_name_H-M     'P 1'
_symmetry_Int_Tables_number        1
_symmetry_cell_setting             triclinic

_cell_length_a                    22.6523
_cell_length_b                    22.6523
_cell_length_c                    65.9502
_cell_angle_alpha                 90.0000
_cell_angle_beta                  90.0000
_cell_angle_gamma                 120.0000

loop_
_atom_site_label
_atom_site_fract_x
_atom_site_fract_y
_atom_site_fract_z
_atom_site_occupancy
O1       0.00000    0.00000    0.57470   1.00
Zn1      0.00000    0.00000    0.54560   1.00
Zn1      0.94843    0.04287    0.58357   1.00
Zn1      0.09443    0.05157    0.58357   1.00
Zn1      0.95713    0.90557    0.58357   1.00
O2       0.93860    0.02610    0.53560   1.00
O2       0.08750    0.06140    0.53560   1.00
O2       0.97390    0.91250    0.53560   1.00
O2       0.91300    0.07160    0.56150   1.00
O2       0.00463    0.12027    0.60077   1.00
O2       0.87413    0.98077    0.60037   1.00
O2       0.15860    0.08700    0.56150   1.00
O2       0.10663    0.12587    0.60037   1.00
O2       0.11563    0.99537    0.60077   1.00
O2       0.92840    0.84140    0.56150   1.00
O2       0.87973    0.88437    0.60077   1.00
O2       0.01923    0.89337    0.60037   1.00
C1       0.91390    0.06020    0.54330   1.00
C1       0.14630    0.08610    0.54330   1.00
C1       0.93980    0.85370    0.54330   1.00
C1       0.06663    0.14397    0.60637   1.00
C1       0.85603    0.92267    0.60637   1.00
C1       0.07733    0.93337    0.60637   1.00
O1       0.00000    0.00000    0.92530   1.00
Zn1      0.00000    0.00000    0.95440   1.00
Zn1      0.04287    0.94843    0.91643   1.00
Zn1      0.05157    0.09443    0.91643   1.00
Zn1      0.90557    0.95713    0.91643   1.00
O2       0.02610    0.93860    0.96440   1.00
O2       0.06140    0.08750    0.96440   1.00
O2       0.91250    0.97390    0.96440   1.00
O2       0.07160    0.91300    0.93850   1.00
O2       0.12027    0.00463    0.89923   1.00
O2       0.98077    0.87413    0.89963   1.00
O2       0.08700    0.15860    0.93850   1.00
O2       0.12587    0.10663    0.89963   1.00
O2       0.99537    0.11563    0.89923   1.00
O2       0.84140    0.92840    0.93850   1.00
O2       0.88437    0.87973    0.89923   1.00
O2       0.89337    0.01923    0.89963   1.00
C1       0.06020    0.91390    0.95670   1.00
C1       0.08610    0.14630    0.95670   1.00
C1       0.85370    0.93980    0.95670   1.00
C1       0.14397    0.06663    0.89363   1.00
C1       0.92267    0.85603    0.89363   1.00
C1       0.93337    0.07733    0.89363   1.00
O1       0.00000    0.00000    0.42530   1.00
Zn1      0.00000    0.00000    0.45440   1.00
Zn1      0.05157    0.95713    0.41643   1.00
Zn1      0.90557    0.94843    0.41643   1.00
Zn1      0.04287    0.09443    0.41643   1.00
O2       0.06140    0.97390    0.46440   1.00
O2       0.91250    0.93860    0.46440   1.00
O2       0.02610    0.08750    0.46440   1.00
O2       0.08700    0.92840    0.43850   1.00
O2       0.99537    0.87973    0.39923   1.00
O2       0.12587    0.01923    0.39963   1.00
O2       0.84140    0.91300    0.43850   1.00
O2       0.89337    0.87413    0.39963   1.00
O2       0.88437    0.00463    0.39923   1.00
O2       0.07160    0.15860    0.43850   1.00
O2       0.12027    0.11563    0.39923   1.00
O2       0.98077    0.10663    0.39963   1.00
C1       0.08610    0.93980    0.45670   1.00
C1       0.85370    0.91390    0.45670   1.00
C1       0.06020    0.14630    0.45670   1.00
C1       0.93337    0.85603    0.39363   1.00
C1       0.14397    0.07733    0.39363   1.00
C1       0.92267    0.06663    0.39363   1.00
O1       0.00000    0.00000    0.07470   1.00
Zn1      0.00000    0.00000    0.04560   1.00
Zn1      0.95713    0.05157    0.08357   1.00
Zn1      0.94843    0.90557    0.08357   1.00
Zn1      0.09443    0.04287    0.08357   1.00
O2       0.97390    0.06140    0.03560   1.00
O2       0.93860    0.91250    0.03560   1.00
O2       0.08750    0.02610    0.03560   1.00
O2       0.92840    0.08700    0.06150   1.00
O2       0.87973    0.99537    0.10077   1.00
O2       0.01923    0.12587    0.10037   1.00
O2       0.91300    0.84140    0.06150   1.00
O2       0.87413    0.89337    0.10037   1.00
O2       0.00463    0.88437    0.10077   1.00
O2       0.15860    0.07160    0.06150   1.00
O2       0.11563    0.12027    0.10077   1.00
O2       0.10663    0.98077    0.10037   1.00
C1       0.93980    0.08610    0.04330   1.00
C1       0.91390    0.85370    0.04330   1.00
C1       0.14630    0.06020    0.04330   1.00
C1       0.85603    0.93337    0.10637   1.00
C1       0.07733    0.14397    0.10637   1.00
C1       0.06663    0.92267    0.10637   1.00
O1       0.66667    0.33333    0.90803   1.00
Zn1      0.66667    0.33333    0.87893   1.00
Zn1      0.61510    0.37620    0.91690   1.00
Zn1      0.76110    0.38490    0.91690   1.00
Zn1      0.62380    0.23890    0.91690   1.00
O2       0.60527    0.35943    0.86893   1.00
O2       0.75417    0.39473    0.86893   1.00
O2       0.64057    0.24583    0.86893   1.00
O2       0.57967    0.40493    0.89483   1.00
O2       0.67130    0.45360    0.93410   1.00
O2       0.54080    0.31410    0.93370   1.00
O2       0.82527    0.42033    0.89483   1.00
O2       0.77330    0.45920    0.93370   1.00
O2       0.78230    0.32870    0.93410   1.00
O2       0.59507    0.17473    0.89483   1.00
O2       0.54640    0.21770    0.93410   1.00
O2       0.68590    0.22670    0.93370   1.00
C1       0.58057    0.39353    0.87663   1.00
C1       0.81297    0.41943    0.87663   1.00
C1       0.60647    0.18703    0.87663   1.00
C1       0.73330    0.47730    0.93970   1.00
C1       0.52270    0.25600    0.93970   1.00
C1       0.74400    0.26670    0.93970   1.00
O1       0.66667    0.33333    0.25863   1.00
Zn1      0.66667    0.33333    0.28773   1.00
Zn1      0.70953    0.28177    0.24977   1.00
Zn1      0.71823    0.42777    0.24977   1.00
Zn1      0.57223    0.29047    0.24977   1.00
O2       0.69277    0.27193    0.29773   1.00
O2       0.72807    0.42083    0.29773   1.00
O2       0.57917    0.30723    0.29773   1.00
O2       0.73827    0.24633    0.27183   1.00
O2       0.78693    0.33797    0.23257   1.00
O2       0.64743    0.20747    0.23297   1.00
O2       0.75367    0.49193    0.27183   1.00
O2       0.79253    0.43997    0.23297   1.00
O2       0.66203    0.44897    0.23257   1.00
O2       0.50807    0.26173    0.27183   1.00
O2       0.55103    0.21307    0.23257   1.00
O2       0.56003    0.35257    0.23297   1.00
C1       0.72687    0.24723    0.29003   1.00
C1       0.75277    0.47963    0.29003   1.00
C1       0.52037    0.27313    0.29003   1.00
C1       0.81063    0.39997    0.22697   1.00
C1       0.58933    0.18937    0.22697   1.00
C1       0.60003    0.41067    0.22697   1.00
O1       0.66667    0.33333    0.75863   1.00
Zn1      0.66667    0.33333    0.78773   1.00
Zn1      0.71823    0.29047    0.74977   1.00
Zn1      0.57223    0.28177    0.74977   1.00
Zn1      0.70953    0.42777    0.74977   1.00
O2       0.72807    0.30723    0.79773   1.00
O2       0.57917    0.27193    0.79773   1.00
O2       0.69277    0.42083    0.79773   1.00
O2       0.75367    0.26173    0.77183   1.00
O2       0.66203    0.21307    0.73257   1.00
O2       0.79253    0.35257    0.73297   1.00
O2       0.50807    0.24633    0.77183   1.00
O2       0.56003    0.20747    0.73297   1.00
O2       0.55103    0.33797    0.73257   1.00
O2       0.73827    0.49193    0.77183   1.00
O2       0.78693    0.44897    0.73257   1.00
O2       0.64743    0.43997    0.73297   1.00
C1       0.75277    0.27313    0.79003   1.00
C1       0.52037    0.24723    0.79003   1.00
C1       0.72687    0.47963    0.79003   1.00
C1       0.60003    0.18937    0.72697   1.00
C1       0.81063    0.41067    0.72697   1.00
C1       0.58933    0.39997    0.72697   1.00
O1       0.66667    0.33333    0.40803   1.00
Zn1      0.66667    0.33333    0.37893   1.00
Zn1      0.62380    0.38490    0.41690   1.00
Zn1      0.61510    0.23890    0.41690   1.00
Zn1      0.76110    0.37620    0.41690   1.00
O2       0.64057    0.39473    0.36893   1.00
O2       0.60527    0.24583    0.36893   1.00
O2       0.75417    0.35943    0.36893   1.00
O2       0.59507    0.42033    0.39483   1.00
O2       0.54640    0.32870    0.43410   1.00
O2       0.68590    0.45920    0.43370   1.00
O2       0.57967    0.17473    0.39483   1.00
O2       0.54080    0.22670    0.43370   1.00
O2       0.67130    0.21770    0.43410   1.00
O2       0.82527    0.40493    0.39483   1.00
O2       0.78230    0.45360    0.43410   1.00
O2       0.77330    0.31410    0.43370   1.00
C1       0.60647    0.41943    0.37663   1.00
C1       0.58057    0.18703    0.37663   1.00
C1       0.81297    0.39353    0.37663   1.00
C1       0.52270    0.26670    0.43970   1.00
C1       0.74400    0.47730    0.43970   1.00
C1       0.73330    0.25600    0.43970   1.00
O1       0.33333    0.66667    0.24137   1.00
Zn1      0.33333    0.66667    0.21227   1.00
Zn1      0.28177    0.70953    0.25023   1.00
Zn1      0.42777    0.71823    0.25023   1.00
Zn1      0.29047    0.57223    0.25023   1.00
O2       0.27193    0.69277    0.20227   1.00
O2       0.42083    0.72807    0.20227   1.00
O2       0.30723    0.57917    0.20227   1.00
O2       0.24633    0.73827    0.22817   1.00
O2       0.33797    0.78693    0.26743   1.00
O2       0.20747    0.64743    0.26703   1.00
O2       0.49193    0.75367    0.22817   1.00
O2       0.43997    0.79253    0.26703   1.00
O2       0.44897    0.66203    0.26743   1.00
O2       0.26173    0.50807    0.22817   1.00
O2       0.21307    0.55103    0.26743   1.00
O2       0.35257    0.56003    0.26703   1.00
C1       0.24723    0.72687    0.20997   1.00
C1       0.47963    0.75277    0.20997   1.00
C1       0.27313    0.52037    0.20997   1.00
C1       0.39997    0.81063    0.27303   1.00
C1       0.18937    0.58933    0.27303   1.00
C1       0.41067    0.60003    0.27303   1.00
O1       0.33333    0.66667    0.59197   1.00
Zn1      0.33333    0.66667    0.62107   1.00
Zn1      0.37620    0.61510    0.58310   1.00
Zn1      0.38490    0.76110    0.58310   1.00
Zn1      0.23890    0.62380    0.58310   1.00
O2       0.35943    0.60527    0.63107   1.00
O2       0.39473    0.75417    0.63107   1.00
O2       0.24583    0.64057    0.63107   1.00
O2       0.40493    0.57967    0.60517   1.00
O2       0.45360    0.67130    0.56590   1.00
O2       0.31410    0.54080    0.56630   1.00
O2       0.42033    0.82527    0.60517   1.00
O2       0.45920    0.77330    0.56630   1.00
O2       0.32870    0.78230    0.56590   1.00
O2       0.17473    0.59507    0.60517   1.00
O2       0.21770    0.54640    0.56590   1.00
O2       0.22670    0.68590    0.56630   1.00
C1       0.39353    0.58057    0.62337   1.00
C1       0.41943    0.81297    0.62337   1.00
C1       0.18703    0.60647    0.62337   1.00
C1       0.47730    0.73330    0.56030   1.00
C1       0.25600    0.52270    0.56030   1.00
C1       0.26670    0.74400    0.56030   1.00
O1       0.33333    0.66667    0.09197   1.00
Zn1      0.33333    0.66667    0.12107   1.00
Zn1      0.38490    0.62380    0.08310   1.00
Zn1      0.23890    0.61510    0.08310   1.00
Zn1      0.37620    0.76110    0.08310   1.00
O2       0.39473    0.64057    0.13107   1.00
O2       0.24583    0.60527    0.13107   1.00
O2       0.35943    0.75417    0.13107   1.00
O2       0.42033    0.59507    0.10517   1.00
O2       0.32870    0.54640    0.06590   1.00
O2       0.45920    0.68590    0.06630   1.00
O2       0.17473    0.57967    0.10517   1.00
O2       0.22670    0.54080    0.06630   1.00
O2       0.21770    0.67130    0.06590   1.00
O2       0.40493    0.82527    0.10517   1.00
O2       0.45360    0.78230    0.06590   1.00
O2       0.31410    0.77330    0.06630   1.00
C1       0.41943    0.60647    0.12337   1.00
C1       0.18703    0.58057    0.12337   1.00
C1       0.39353    0.81297    0.12337   1.00
C1       0.26670    0.52270    0.06030   1.00
C1       0.47730    0.74400    0.06030   1.00
C1       0.25600    0.73330    0.06030   1.00
O1       0.33333    0.66667    0.74137   1.00
Zn1      0.33333    0.66667    0.71227   1.00
Zn1      0.29047    0.71823    0.75023   1.00
Zn1      0.28177    0.57223    0.75023   1.00
Zn1      0.42777    0.70953    0.75023   1.00
O2       0.30723    0.72807    0.70227   1.00
O2       0.27193    0.57917    0.70227   1.00
O2       0.42083    0.69277    0.70227   1.00
O2       0.26173    0.75367    0.72817   1.00
O2       0.21307    0.66203    0.76743   1.00
O2       0.35257    0.79253    0.76703   1.00
O2       0.24633    0.50807    0.72817   1.00
O2       0.20747    0.56003    0.76703   1.00
O2       0.33797    0.55103    0.76743   1.00
O2       0.49193    0.73827    0.72817   1.00
O2       0.44897    0.78693    0.76743   1.00
O2       0.43997    0.64743    0.76703   1.00
C1       0.27313    0.75277    0.70997   1.00
C1       0.24723    0.52037    0.70997   1.00
C1       0.47963    0.72687    0.70997   1.00
C1       0.18937    0.60003    0.77303   1.00
C1       0.41067    0.81063    0.77303   1.00
C1       0.39997    0.58933    0.77303   1.00
C5       0.89785    0.96591    0.49879   1.00
H2       0.86725    0.95778    0.51274   1.00
H2       0.86264    0.95658    0.48590   1.00
C5       0.95796    1.04022    0.49831   1.00
H2       0.94084    1.07556    0.49265   1.00
H2       0.99917    1.04393    0.48825   1.00
O_3      0.94415    0.69964    0.46601   1.00
C4       0.86114    0.69377    0.49863   1.00
C3c      0.85483    0.75218    0.49689   1.00
H1       0.82920    0.75810    0.48387   1.00
C3d      0.89387    0.68660    0.51584   1.00
C3       0.88213    0.80411    0.51165   1.00
O2       0.86676    0.85557    0.51019   1.00
C3       0.92224    0.73881    0.53037   1.00
H1       0.94899    0.73215    0.54295   1.00
C2       0.91698    0.79856    0.52874   1.00
C5       0.99074    0.67814    0.47147   1.00
H2       0.98654    0.63652    0.46146   1.00
H2       0.98261    0.65956    0.48747   1.00
C5       1.06216    0.73914    0.46941   1.00
H2       1.06577    0.78139    0.47898   1.00
H2       1.06994    0.75685    0.45335   1.00
C5       1.11615    0.72077    0.47578   1.00
H2       1.11253    0.67829    0.46639   1.00
H2       1.10989    0.70535    0.49202   1.00
H2       1.16806    0.76555    0.47375   1.00
C5       0.84928    0.57684    0.52674   1.00
C5       0.91857    0.91110    0.49928   1.00
H2       0.80252    0.55876    0.51737   1.00
H2       0.83922    0.59011    0.54217   1.00
H2       0.92204    0.89492    0.48355   1.00
H2       0.96994    0.93166    0.50645   1.00
H2       0.97904    1.05836    0.51385   1.00
H2       0.76580    0.43187    0.51997   1.00
H2       0.77386    0.45460    0.54668   1.00
C2       0.78604    0.53782    0.45316   1.00
C3       0.74240    0.53575    0.46878   1.00
O2       0.68188    0.47652    0.47264   1.00
C3       0.85331    0.59396    0.45243   1.00
H1       0.88742    0.59795    0.44036   1.00
C3a      0.76709    0.58816    0.48344   1.00
H1       0.73429    0.58384    0.49595   1.00
C3b      0.87837    0.64485    0.46740   1.00
C4       0.83526    0.64219    0.48309   1.00
O_3      0.90595    0.63262    0.51752   1.00
C5       0.62663    0.48085    0.46442   1.00
H2       0.62346    0.52454    0.47107   1.00
C5       0.56168    0.41407    0.46962   1.00
H2       0.63141    0.48720    0.44763   1.00
H2       0.54759    0.41689    0.48562   1.00
H2       0.57443    0.37253    0.46901   1.00
C5       0.50183    0.39836    0.45525   1.00
H2       0.49335    0.44263    0.45483   1.00
H2       0.45415    0.35266    0.46052   1.00
H2       0.51182    0.38679    0.43955   1.00
C5       0.86536    0.51934    0.52860   1.00
H2       0.90448    0.53301    0.54068   1.00
H2       0.88891    0.51615    0.51411   1.00
C5       0.80122    0.45044    0.53322   1.00
H2       0.81583    0.41134    0.53657   1.00
C5       0.29328    0.27411    0.57714   1.00
H2       0.24552    0.27476    0.57385   1.00
H2       0.33554    0.32667    0.57408   1.00
C5       0.29387    0.25523    0.59967   1.00
H2       0.31046    0.30059    0.60961   1.00
H2       0.32918    0.23491    0.60180   1.00
O_3      0.41801    0.14792    0.50248   1.00
C4       0.30529    0.16756    0.49834   1.00
C3c      0.30807    0.20746    0.51501   1.00
H1       0.35041    0.25888    0.51652   1.00
C3d      0.24917    0.10102    0.49650   1.00
C3       0.25717    0.18162    0.53009   1.00
O2       0.25895    0.22622    0.54458   1.00
C3       0.19908    0.07469    0.51169   1.00
H1       0.15828    0.02258    0.51000   1.00
C2       0.20149    0.11409    0.52877   1.00
C5       0.40266    0.08137    0.49710   1.00
H2       0.43809    0.08157    0.48532   1.00
H2       0.34949    0.05096    0.49121   1.00
C5       0.40966    0.04729    0.51607   1.00
H2       0.37568    0.04881    0.52803   1.00
H2       0.46308    0.07772    0.52171   1.00
C5       0.39143    -0.02646   0.51172   1.00
H2       0.42485    -0.02839   0.49969   1.00
H2       0.33737    -0.05748   0.50677   1.00
H2       0.39830    -0.05005   0.52565   1.00
C5       0.21596    0.06754    0.46386   1.00
C5       0.29510    0.22424    0.56182   1.00
H2       0.24633    0.12049    0.45797   1.00
H2       0.16309    0.05671    0.46708   1.00
H2       0.34886    0.24053    0.55763   1.00
H2       0.27221    0.17203    0.56856   1.00
H2       0.24170    0.21634    0.60491   1.00
H2       0.24210    0.08515    0.42077   1.00
H2       0.15166    0.04142    0.42679   1.00
C2       0.46229    0.24050    0.45322   1.00
C3       0.40809    0.25409    0.45137   1.00
O2       0.39542    0.27523    0.43308   1.00
C3       0.46489    0.20554    0.47068   1.00
H1       0.50664    0.19591    0.47280   1.00
C3a      0.35738    0.23122    0.46654   1.00
H1       0.31419    0.23860    0.46434   1.00
C3b      0.41323    0.18096    0.48541   1.00
C4       0.35884    0.19359    0.48340   1.00
O_3      0.24663    0.05793    0.48122   1.00
C5       0.42049    0.34616    0.43342   1.00
H2       0.39595    0.36028    0.44573   1.00
C5       0.40350    0.36528    0.41284   1.00
H2       0.47678    0.37487    0.43575   1.00
H2       0.34903    0.35189    0.41297   1.00
H2       0.40805    0.33214    0.40119   1.00
C5       0.44997    0.44121    0.40749   1.00
H2       0.44895    0.47346    0.42004   1.00
H2       0.43248    0.45439    0.39330   1.00
H2       0.50368    0.45347    0.40476   1.00
C5       0.21312    0.01834    0.44763   1.00
H2       0.17354    -0.03430   0.45204   1.00
H2       0.26294    0.01960    0.44755   1.00
C5       0.19820    0.03659    0.42647   1.00
H2       0.18945    -0.00416   0.41547   1.00
C5       0.75501    0.06487    0.58233   1.00
H2       0.74451    0.01170    0.58058   1.00
H2       0.70487    0.06221    0.58089   1.00
C5       0.78614    0.09209    0.60353   1.00
H2       0.74553    0.07402    0.61530   1.00
H2       0.81488    0.14884    0.60345   1.00
O_3      0.87460    0.27757    0.49794   1.00
C4       0.83228    0.13763    0.49836   1.00
C3c      0.79838    0.11256    0.51691   1.00
H1       0.75167    0.11300    0.51991   1.00
C3d      0.89255    0.13569    0.49463   1.00
C3       0.82443    0.08755    0.53194   1.00
O2       0.78430    0.05628    0.54862   1.00
C3       0.91931    0.11203    0.50971   1.00
H1       0.96694    0.11377    0.50645   1.00
C2       0.88608    0.08718    0.52865   1.00
C5       0.94018    0.31774    0.48947   1.00
H2       0.94036    0.35035    0.47678   1.00
H2       0.96054    0.28517    0.48362   1.00
C5       0.98686    0.36375    0.50613   1.00
H2       0.98519    0.33124    0.51906   1.00
H2       0.96640    0.39646    0.51172   1.00
C5       1.06010    0.40766    0.49837   1.00
H2       1.06208    0.43990    0.48537   1.00
H2       1.08142    0.37508    0.49344   1.00
H2       1.09314    0.44201    0.51063   1.00
C5       0.90665    0.11551    0.46159   1.00
C5       0.80097    0.10429    0.56443   1.00
H2       0.85266    0.09853    0.45773   1.00
H2       0.91064    0.06989    0.46579   1.00
H2       0.79087    0.14560    0.55954   1.00
H2       0.85588    0.12900    0.56894   1.00
H2       0.82109    0.07297    0.60817   1.00
H2       0.87151    0.10903    0.41921   1.00
H2       0.90541    0.05357    0.42553   1.00
C2       0.75980    0.22139    0.45300   1.00
C3       0.73511    0.15050    0.45357   1.00
O2       0.70156    0.11019    0.43705   1.00
C3       0.80592    0.26279    0.46826   1.00
H1       0.82439    0.31698    0.46856   1.00
C3a      0.75808    0.12310    0.46884   1.00
H1       0.74172    0.06934    0.46839   1.00
C3b      0.83033    0.23570    0.48304   1.00
C4       0.80656    0.16538    0.48340   1.00
O_3      0.93057    0.16446    0.47727   1.00
C5       0.63055    0.07434    0.44049   1.00
H2       0.61727    0.04095    0.45416   1.00
C5       0.59730    0.03020    0.42173   1.00
H2       0.61082    0.11021    0.44264   1.00
H2       0.60223    -0.01622   0.42279   1.00
H2       0.62771    0.05934    0.40828   1.00
C5       0.52190    0.01036    0.41918   1.00
H2       0.49347    -0.01383   0.43335   1.00
H2       0.49798    -0.02627   0.40642   1.00
H2       0.51676    0.05580    0.41551   1.00
C5       0.95065    0.14895    0.44297   1.00
H2       1.00201    0.15514    0.44566   1.00
H2       0.95784    0.20114    0.44144   1.00
C5       0.91840    0.10754    0.42353   1.00
H2       0.95493    0.12946    0.41071   1.00
C5       0.97185    0.91406    0.00307   1.00
H2       0.96552    0.88176    -0.01034   1.00
H2       0.96438    0.88156    0.01654   1.00
C5       1.04458    0.97694    0.00308   1.00
H2       1.08204    0.96362    0.00940   1.00
H2       1.04571    1.01858    0.01235   1.00
O_3      0.69432    0.94685    0.03238   1.00
C4       0.69380    0.86111    0.00138   1.00
C3c      0.75437    0.85907    0.00379   1.00
H1       0.76200    0.83681    0.01734   1.00
C3d      0.68444    0.88945    -0.01651   1.00
C3       0.80623    0.88638    -0.01099   1.00
O2       0.86023    0.87511    -0.00875   1.00
C3       0.73653    0.91786    -0.03108   1.00
H1       0.72806    0.94121    -0.04422   1.00
C2       0.79842    0.91690    -0.02878   1.00
C5       0.66924    0.98954    0.02582   1.00
H2       0.62656    0.98442    0.03550   1.00
H2       0.65073    0.97792    0.00984   1.00
C5       0.72752    1.06274    0.02707   1.00
H2       0.77089    1.06740    0.01785   1.00
H2       0.74516    1.07397    0.04312   1.00
C5       0.70521    1.11262    0.01949   1.00
H2       0.66160    1.10790    0.02853   1.00
H2       0.68983    1.10297    0.00325   1.00
H2       0.74802    1.16594    0.02093   1.00
C5       0.57427    0.83758    -0.02756   1.00
C5       0.91406    0.93045    0.00166   1.00
H2       0.55856    0.79280    -0.01746   1.00
H2       0.58870    0.82625    -0.04264   1.00
H2       0.89705    0.93528    0.01715   1.00
H2       0.93202    0.98019    -0.00630   1.00
H2       1.06204    0.99596    -0.01267   1.00
H2       0.43018    0.74877    -0.02055   1.00
H2       0.45328    0.75371    -0.04715   1.00
C2       0.53757    0.78590    0.04677   1.00
C3       0.53833    0.74113    0.03200   1.00
O2       0.48119    0.67829    0.02877   1.00
C3       0.59112    0.85456    0.04672   1.00
H1       0.59298    0.88968    0.05814   1.00
C3a      0.59087    0.76598    0.01738   1.00
H1       0.58859    0.73203    0.00548   1.00
C3b      0.64207    0.87962    0.03177   1.00
C4       0.64218    0.83531    0.01691   1.00
O_3      0.62808    0.89736    -0.01893   1.00
C5       0.48910    0.62658    0.03808   1.00
H2       0.53437    0.62527    0.03192   1.00
C5       0.42447    0.55875    0.03353   1.00
H2       0.49522    0.63431    0.05482   1.00
H2       0.42840    0.54275    0.01785   1.00
H2       0.38086    0.56847    0.03349   1.00
C5       0.41200    0.50229    0.04889   1.00
H2       0.45815    0.49704    0.04990   1.00
H2       0.36799    0.45249    0.04413   1.00
H2       0.39933    0.51372    0.06426   1.00
C5       0.51402    0.84909    -0.03028   1.00
H2       0.52571    0.88578    -0.04297   1.00
H2       0.50913    0.87395    -0.01629   1.00
C5       0.44715    0.78201    -0.03429   1.00
H2       0.40596    0.79304    -0.03828   1.00
C5       0.27387    0.29347    -0.07720   1.00
H2       0.27462    0.24575    -0.07393   1.00
H2       0.32641    0.33579    -0.07416   1.00
C5       0.25487    0.29402    -0.09972   1.00
H2       0.30020    0.31068    -0.10968   1.00
H2       0.23446    0.32927    -0.10183   1.00
O_3      0.14769    0.41788    -0.00244   1.00
C4       0.16756    0.30529    0.00166   1.00
C3c      0.20741    0.30813    -0.01503   1.00
H1       0.25880    0.35053    -0.01655   1.00
C3d      0.10107    0.24911    0.00352   1.00
C3       0.18157    0.25723    -0.03011   1.00
O2       0.22614    0.25909    -0.04463   1.00
C3       0.07474    0.19901    -0.01167   1.00
H1       0.02265    0.15815    -0.00996   1.00
C2       0.11409    0.20149    -0.02877   1.00
C5       0.08114    0.40242    0.00297   1.00
H2       0.08132    0.43782    0.01476   1.00
H2       0.05081    0.34925    0.00886   1.00
C5       0.04692    0.40936    -0.01598   1.00
H2       0.04845    0.37541    -0.02795   1.00
H2       0.07726    0.46279    -0.02162   1.00
C5       -0.02684   0.39101    -0.01160   1.00
H2       -0.02877   0.42441    0.00044   1.00
H2       -0.05777   0.33695    -0.00665   1.00
H2       -0.05052   0.39784    -0.02552   1.00
C5       0.06776    0.21587    0.03617   1.00
C5       0.22403    0.29520    -0.06185   1.00
H2       0.12074    0.24630    0.04204   1.00
H2       0.05700    0.16302    0.03294   1.00
H2       0.24025    0.34895    -0.05766   1.00
H2       0.17177    0.27224    -0.06857   1.00
H2       0.21601    0.24183    -0.10495   1.00
H2       0.08554    0.24202    0.07926   1.00
H2       0.04190    0.15158    0.07323   1.00
C2       0.24050    0.46228    0.04679   1.00
C3       0.25420    0.40816    0.04861   1.00
O2       0.27547    0.39553    0.06689   1.00
C3       0.20543    0.46481    0.02934   1.00
H1       0.19570    0.50652    0.02723   1.00
C3a      0.23133    0.35745    0.03344   1.00
H1       0.23880    0.31431    0.03563   1.00
C3b      0.18085    0.41316    0.01461   1.00
C4       0.19359    0.35884    0.01660   1.00
O_3      0.05801    0.24649    0.01882   1.00
C5       0.34641    0.42070    0.06652   1.00
H2       0.36053    0.39621    0.05419   1.00
C5       0.36567    0.40376    0.08708   1.00
H2       0.37503    0.47699    0.06418   1.00
H2       0.35236    0.34931    0.08694   1.00
H2       0.33254    0.40825    0.09875   1.00
C5       0.44160    0.45033    0.09240   1.00
H2       0.47383    0.44936    0.07984   1.00
H2       0.45489    0.43287    0.10658   1.00
H2       0.45380    0.50400    0.09514   1.00
C5       0.01861    0.21294    0.05242   1.00
H2       -0.03404   0.17331    0.04803   1.00
H2       0.01978    0.26272    0.05252   1.00
C5       0.03699    0.19807    0.07357   1.00
H2       -0.00374   0.18926    0.08459   1.00
C5       0.06486    0.75501    -0.08233   1.00
H2       0.01170    0.74450    -0.08058   1.00
H2       0.06221    0.70486    -0.08089   1.00
C5       0.09208    0.78613    -0.10353   1.00
H2       0.07401    0.74553    -0.11530   1.00
H2       0.14884    0.81487    -0.10345   1.00
O_3      0.27757    0.87460    0.00206   1.00
C4       0.13763    0.83228    0.00164   1.00
C3c      0.11256    0.79838    -0.01691   1.00
H1       0.11300    0.75167    -0.01991   1.00
C3d      0.13570    0.89255    0.00537   1.00
C3       0.08755    0.82443    -0.03194   1.00
O2       0.05628    0.78430    -0.04862   1.00
C3       0.11203    0.91932    -0.00971   1.00
H1       0.11377    0.96694    -0.00645   1.00
C2       0.08718    0.88608    -0.02865   1.00
C5       0.31774    0.94017    0.01053   1.00
H2       0.35035    0.94036    0.02322   1.00
H2       0.28517    0.96054    0.01638   1.00
C5       0.36375    0.98686    -0.00613   1.00
H2       0.33124    0.98519    -0.01906   1.00
H2       0.39646    0.96639    -0.01173   1.00
C5       0.40766    1.06010    0.00163   1.00
H2       0.43990    1.06208    0.01463   1.00
H2       0.37509    1.08141    0.00656   1.00
H2       0.44201    1.09314    -0.01063   1.00
C5       0.11551    0.90665    0.03841   1.00
C5       0.10429    0.80097    -0.06443   1.00
H2       0.09853    0.85266    0.04227   1.00
H2       0.06990    0.91064    0.03421   1.00
H2       0.14560    0.79087    -0.05954   1.00
H2       0.12899    0.85588    -0.06894   1.00
H2       0.07296    0.82108    -0.10817   1.00
H2       0.10904    0.87151    0.08079   1.00
H2       0.05357    0.90541    0.07447   1.00
C2       0.22139    0.75980    0.04700   1.00
C3       0.15050    0.73511    0.04643   1.00
O2       0.11019    0.70156    0.06295   1.00
C3       0.26279    0.80592    0.03174   1.00
H1       0.31698    0.82439    0.03144   1.00
C3a      0.12310    0.75808    0.03116   1.00
H1       0.06934    0.74172    0.03161   1.00
C3b      0.23570    0.83033    0.01696   1.00
C4       0.16538    0.80656    0.01660   1.00
O_3      0.16447    0.93057    0.02273   1.00
C5       0.07434    0.63055    0.05951   1.00
H2       0.04095    0.61727    0.04584   1.00
C5       0.03020    0.59730    0.07827   1.00
H2       0.11021    0.61082    0.05736   1.00
H2       -0.01622   0.60224    0.07721   1.00
H2       0.05934    0.62771    0.09172   1.00
C5       0.01036    0.52190    0.08082   1.00
H2       -0.01384   0.49347    0.06665   1.00
H2       -0.02627   0.49798    0.09358   1.00
H2       0.05580    0.51676    0.08449   1.00
C5       0.14895    0.95065    0.05703   1.00
H2       0.15515    1.00201    0.05434   1.00
H2       0.20115    0.95784    0.05856   1.00
C5       0.10755    0.91841    0.07647   1.00
H2       0.12947    0.95494    0.08929   1.00
C5       0.08520    0.31494    0.41605   1.00
H2       0.11757    0.29367    0.41101   1.00
H2       0.11757    0.37119    0.41472   1.00
C5       0.02220    0.28848    0.40202   1.00
H2       0.03535    0.31882    0.38777   1.00
H2       -0.01944   0.29189    0.40992   1.00
O_3      0.05304    0.34683    0.51989   1.00
C4       0.13889    0.30567    0.50154   1.00
C3c      0.14073    0.32123    0.48085   1.00
H1       0.16284    0.37380    0.47613   1.00
C3d      0.11075    0.23691    0.50735   1.00
C3       0.11342    0.26959    0.46601   1.00
O2       0.12451    0.28904    0.44596   1.00
C3       0.08234    0.18529    0.49264   1.00
H1       0.05914    0.13317    0.49789   1.00
C2       0.08310    0.20008    0.47167   1.00
C5       0.01054    0.30075    0.53493   1.00
H2       0.01570    0.32632    0.54980   1.00
H2       0.02232    0.25891    0.53725   1.00
C5       -0.06273   0.27026    0.52774   1.00
H2       -0.06745   0.24637    0.51261   1.00
H2       -0.07412   0.31240    0.52565   1.00
C5       -0.11243   0.21752    0.54293   1.00
H2       -0.10765   0.24091    0.55812   1.00
H2       -0.10262   0.17423    0.54450   1.00
H2       -0.16580   0.19690    0.53764   1.00
C5       0.16294    0.22072    0.53465   1.00
C5       0.06902    0.29450    0.43837   1.00
H2       0.20763    0.27315    0.53360   1.00
H2       0.17433    0.18537    0.52591   1.00
H2       0.06412    0.33436    0.44693   1.00
H2       0.01935    0.24570    0.43977   1.00
H2       0.00328    0.23446    0.39736   1.00
H2       0.25200    0.27327    0.56944   1.00
H2       0.24719    0.19657    0.55909   1.00
C2       0.21411    0.45977    0.54758   1.00
C3       0.25892    0.44250    0.53782   1.00
O2       0.32186    0.46155    0.54614   1.00
C3       0.14539    0.42752    0.54106   1.00
H1       0.11024    0.44089    0.54786   1.00
C3a      0.23406    0.39277    0.52234   1.00
H1       0.26806    0.37731    0.51583   1.00
C3b      0.12034    0.37652    0.52612   1.00
C4       0.16469    0.35865    0.51665   1.00
O_3      0.10304    0.21854    0.52761   1.00
C5       0.37340    0.51856    0.53576   1.00
H2       0.37463    0.50711    0.51934   1.00
C5       0.44135    0.53570    0.54561   1.00
H2       0.36554    0.56323    0.53708   1.00
H2       0.45743    0.49997    0.53959   1.00
H2       0.43177    0.52475    0.56213   1.00
C5       0.49765    0.61030    0.54212   1.00
H2       0.50276    0.62186    0.52562   1.00
H2       0.54754    0.61922    0.54801   1.00
H2       0.48616    0.64664    0.55031   1.00
C5       0.15165    0.19898    0.55681   1.00
H2       0.11508    0.14312    0.55752   1.00
H2       0.12673    0.22470    0.56447   1.00
C5       0.21886    0.21697    0.56763   1.00
H2       0.20798    0.19416    0.58305   1.00
C5       0.71236    0.71941    0.42462   1.00
H2       0.72049    0.76424    0.41557   1.00
H2       0.65696    0.68193    0.42359   1.00
C5       0.75446    0.68931    0.41536   1.00
H2       0.72740    0.65596    0.40217   1.00
H2       0.76334    0.65892    0.42698   1.00
O_3      0.68441    0.73455    0.52938   1.00
C4       0.69413    0.83312    0.50148   1.00
C3c      0.68323    0.80253    0.48228   1.00
H1       0.63430    0.75867    0.47873   1.00
C3d      0.75793    0.89082    0.50571   1.00
C3       0.73517    0.82718    0.46753   1.00
O2       0.71824    0.79996    0.44832   1.00
C3       0.81017    0.91469    0.49119   1.00
H1       0.85900    0.95760    0.49537   1.00
C2       0.80025    0.88391    0.47177   1.00
C5       0.73304    0.76290    0.54511   1.00
H2       0.70900    0.74964    0.56043   1.00
H2       0.76330    0.81961    0.54387   1.00
C5       0.78075    0.73420    0.54316   1.00
H2       0.80332    0.74578    0.52765   1.00
H2       0.75010    0.67764    0.54461   1.00
C5       0.83695    0.76438    0.55932   1.00
H2       0.81476    0.75342    0.57484   1.00
H2       0.86906    0.82059    0.55744   1.00
H2       0.87041    0.74168    0.55793   1.00
C5       0.75232    0.96886    0.52628   1.00
C5       0.73137    0.74538    0.44642   1.00
H2       0.69629    0.94536    0.52418   1.00
H2       0.77865    1.01015    0.51479   1.00
H2       0.69943    0.70406    0.45739   1.00
H2       0.78590    0.76129    0.44952   1.00
H2       0.80467    0.73046    0.40951   1.00
H2       0.67880    1.00562    0.55463   1.00
H2       0.74385    1.07849    0.54070   1.00
C2       0.54083    0.75592    0.54775   1.00
C3       0.54249    0.80262    0.53326   1.00
O2       0.50708    0.83666    0.53659   1.00
C3       0.58852    0.73317    0.54593   1.00
H1       0.58746    0.69610    0.55647   1.00
C3a      0.59220    0.82663    0.51778   1.00
H1       0.59528    0.86529    0.50750   1.00
C3b      0.63926    0.75879    0.53092   1.00
C4       0.64152    0.80601    0.51671   1.00
O_3      0.77294    0.91962    0.52487   1.00
C5       0.44630    0.80671    0.52514   1.00
H2       0.45711    0.80835    0.50856   1.00
C5       0.41077    0.84785    0.52939   1.00
H2       0.41215    0.75259    0.52970   1.00
H2       0.43569    0.89516    0.52006   1.00
H2       0.42072    0.86437    0.54554   1.00
C5       0.33347    0.80730    0.52514   1.00
H2       0.32437    0.78667    0.50945   1.00
H2       0.31051    0.84055    0.52675   1.00
H2       0.30642    0.76446    0.53617   1.00
C5       0.77094    0.99995    0.54741   1.00
H2       0.82735    1.03328    0.54824   1.00
H2       0.75664    0.95794    0.55854   1.00
C5       0.73482    1.04028    0.55269   1.00
H2       0.75493    1.06799    0.56723   1.00
C5       0.27855    0.98902    0.42403   1.00
H2       0.23313    0.95239    0.41518   1.00
H2       0.31539    0.97032    0.42295   1.00
C5       0.30917    1.06092    0.41453   1.00
H2       0.34180    1.06619    0.40124   1.00
H2       0.34042    1.10049    0.42597   1.00
O_3      0.26722    0.95013    0.52893   1.00
C4       0.16688    0.86101    0.50148   1.00
C3c      0.19673    0.87958    0.48216   1.00
H1       0.24001    0.87363    0.47851   1.00
C3d      0.10991    0.86826    0.50584   1.00
C3       0.17210    0.90688    0.46741   1.00
O2       0.19845    0.91602    0.44811   1.00
C3       0.08608    0.89664    0.49131   1.00
H1       0.04380    0.90347    0.49558   1.00
C2       0.11614    0.91638    0.47177   1.00
C5       0.24008    0.97166    0.54468   1.00
H2       0.25369    0.96120    0.55998   1.00
H2       0.18336    0.94586    0.54364   1.00
C5       0.26968    1.04813    0.54247   1.00
H2       0.25773    1.05876    0.52696   1.00
H2       0.32626    1.07340    0.54372   1.00
C5       0.24083    1.07550    0.55864   1.00
H2       0.25217    1.06464    0.57416   1.00
H2       0.18462    1.05204    0.55696   1.00
H2       0.26418    1.13168    0.55706   1.00
C5       0.03203    0.78604    0.52680   1.00
C5       0.25359    0.98331    0.44591   1.00
H2       0.05474    0.75280    0.52472   1.00
H2       -0.00964   0.77116    0.51545   1.00
H2       0.29518    0.99255    0.45676   1.00
H2       0.23856    1.02263    0.44895   1.00
H2       0.26826    1.07047    0.40875   1.00
H2       -0.00500   0.67665    0.55550   1.00
H2       -0.07798   0.66937    0.54178   1.00
C2       0.24416    0.78497    0.54775   1.00
C3       0.19652    0.73973    0.53348   1.00
O2       0.16179    0.67042    0.53706   1.00
C3       0.26777    0.85553    0.54570   1.00
H1       0.30555    0.89165    0.55606   1.00
C3a      0.17247    0.76539    0.51800   1.00
H1       0.13313    0.72973    0.50790   1.00
C3b      0.24213    0.88064    0.53069   1.00
C4       0.19400    0.83550    0.51670   1.00
O_3      0.08193    0.85560    0.52510   1.00
C5       0.19053    0.63840    0.52561   1.00
H2       0.18836    0.64699    0.50902   1.00
C5       0.14868    0.56196    0.53015   1.00
H2       0.24472    0.65785    0.52999   1.00
H2       0.10101    0.53978    0.52099   1.00
H2       0.13287    0.55627    0.54636   1.00
C5       0.18814    0.52410    0.52589   1.00
H2       0.20813    0.53476    0.51012   1.00
H2       0.15433    0.46805    0.52772   1.00
H2       0.23135    0.53978    0.53677   1.00
C5       0.00188    0.77483    0.54803   1.00
H2       -0.03077   0.79867    0.54889   1.00
H2       0.04446    0.80255    0.55900   1.00
C5       -0.03911   0.69866    0.55360   1.00
H2       -0.06611   0.69204    0.56823   1.00
C5       0.05073    0.13829    1.00397   1.00
H2       0.01888    0.08207    1.00548   1.00
H2       0.04905    0.14957    0.98765   1.00
C5       0.02013    0.17308    1.01709   1.00
H2       -0.02286   0.17357    1.00905   1.00
H2       0.06000    0.22648    1.02059   1.00
O_3      0.40253    0.27769    0.99781   1.00
C4       0.30563    0.13756    0.99844   1.00
C3c      0.24219    0.13296    0.99514   1.00
H1       0.23214    0.14961    0.98084   1.00
C3d      0.31734    0.11467    1.01707   1.00
C3       0.19130    0.10790    1.01022   1.00
O2       0.12780    0.09714    1.00502   1.00
C3       0.26725    0.09091    1.03226   1.00
H1       0.27945    0.07619    1.04656   1.00
C2       0.20310    0.08662    1.02925   1.00
C5       0.45397    0.29608    1.01258   1.00
H2       0.50609    0.32312    1.00584   1.00
H2       0.44771    0.25029    1.02085   1.00
C5       0.44778    0.34366    1.02757   1.00
H2       0.39507    0.31735    1.03388   1.00
H2       0.45474    0.38946    1.01919   1.00
C5       0.50052    0.36431    1.04464   1.00
H2       0.55325    0.39019    1.03843   1.00
H2       0.49212    0.31885    1.05346   1.00
H2       0.49621    0.40026    1.05519   1.00
C5       0.38408    0.06586    1.01458   1.00
C5       0.12297    0.15539    1.00988   1.00
H2       0.37837    0.06099    0.99781   1.00
H2       0.34393    0.01757    1.02164   1.00
H2       0.16146    0.20037    1.00109   1.00
H2       0.13229    0.16890    1.02635   1.00
H2       -0.00136   0.14473    1.03158   1.00
H2       0.47897    0.04062    0.99223   1.00
H2       0.42923    -0.02607   1.01053   1.00
C2       0.46514    0.22038    0.95408   1.00
C3       0.41498    0.15062    0.95345   1.00
O2       0.42551    0.10541    0.94215   1.00
C3       0.45921    0.26213    0.96897   1.00
H1       0.49577    0.31607    0.96952   1.00
C3a      0.36169    0.12404    0.96784   1.00
H1       0.32593    0.06982    0.96788   1.00
C3b      0.40742    0.23512    0.98366   1.00
C4       0.35819    0.16556    0.98321   1.00
O_3      0.38065    0.12288    1.02165   1.00
C5       0.38863    0.08997    0.92381   1.00
H2       0.33276    0.06671    0.92666   1.00
C5       0.40200    0.03896    0.91238   1.00
H2       0.40599    0.13668    0.91439   1.00
H2       0.36892    -0.01264   0.91897   1.00
H2       0.45566    0.05253    0.91555   1.00
C5       0.38984    0.03830    0.88935   1.00
H2       0.33786    0.03004    0.88652   1.00
H2       0.39445    -0.00323   0.88183   1.00
H2       0.42850    0.08712    0.88208   1.00
C5       0.45389    0.07652    1.02027   1.00
H2       0.45505    0.06960    1.03697   1.00
H2       0.49277    0.13046    1.01689   1.00
C5       0.47079    0.02774    1.00871   1.00
H2       0.51856    0.03198    1.01476   1.00
C5       0.70312    0.73363    1.06880   1.00
H2       0.74129    0.73550    1.07974   1.00
H2       0.65991    0.68033    1.06916   1.00
C5       0.67919    0.78367    1.07563   1.00
H2       0.63950    0.76036    1.08765   1.00
H2       0.65781    0.79765    1.06249   1.00
O_3      0.75359    0.69843    0.96638   1.00
C4       0.83302    0.69402    0.99855   1.00
C3c      0.79609    0.68773    1.01631   1.00
H1       0.74717    0.64243    1.01874   1.00
C3d      0.89711    0.75303    0.99582   1.00
C3       0.82095    0.73980    1.03103   1.00
O2       0.78607    0.72653    1.04909   1.00
C3       0.92140    0.80554    1.01026   1.00
H1       0.96969    0.85087    1.00717   1.00
C2       0.88437    0.80033    1.02820   1.00
C5       0.79328    0.74553    0.95116   1.00
H2       0.78346    0.72148    0.93586   1.00
H2       0.84885    0.76897    0.95449   1.00
C5       0.77440    0.80114    0.95072   1.00
H2       0.78239    0.82389    0.96617   1.00
H2       0.71898    0.77726    0.94720   1.00
C5       0.81714    0.85604    0.93501   1.00
H2       0.80978    0.83360    0.91957   1.00
H2       0.87231    0.88155    0.93891   1.00
H2       0.80158    0.89545    0.93459   1.00
C5       0.97468    0.73413    0.97933   1.00
C5       0.73824    0.74925    1.04807   1.00
H2       0.94354    0.67797    0.98144   1.00
H2       1.01166    0.75609    0.99214   1.00
H2       0.70012    0.72131    1.03588   1.00
H2       0.76268    0.80498    1.04463   1.00
H2       0.72215    0.83103    1.08237   1.00
H2       1.00705    0.64890    0.95456   1.00
H2       1.07784    0.70735    0.97050   1.00
C2       0.75674    0.54097    0.95221   1.00
C3       0.79339    0.53577    0.96877   1.00
O2       0.81963    0.49243    0.96784   1.00
C3       0.74327    0.59563    0.95192   1.00
H1       0.71384    0.60005    0.93973   1.00
C3a      0.81702    0.58558    0.98422   1.00
H1       0.84832    0.58306    0.99619   1.00
C3b      0.76871    0.64627    0.96697   1.00
C4       0.80603    0.64162    0.98326   1.00
O_3      0.93308    0.76400    0.97792   1.00
C5       0.77822    0.43247    0.97900   1.00
H2       0.77490    0.44423    0.99527   1.00
C5       0.81120    0.38786    0.97752   1.00
H2       0.72566    0.40437    0.97259   1.00
H2       0.85423    0.40729    0.98851   1.00
H2       0.83409    0.39543    0.96211   1.00
C5       0.76038    0.31170    0.98137   1.00
H2       0.73410    0.30567    0.99611   1.00
H2       0.78726    0.28185    0.98186   1.00
H2       0.72170    0.28923    0.96896   1.00
C5       1.01409    0.74854    0.95952   1.00
H2       1.05365    0.80359    0.95913   1.00
H2       0.97827    0.73958    0.94677   1.00
C5       1.04665    0.70340    0.95698   1.00
H2       1.08065    0.72012    0.94350   1.00
C5       0.98821    0.27812    1.07609   1.00
H2       0.95159    0.23258    1.08489   1.00
H2       0.96934    0.31483    1.07718   1.00
C5       1.06005    0.30884    1.08564   1.00
H2       1.06510    0.34132    1.09895   1.00
H2       1.09968    0.34028    1.07423   1.00
O_3      0.95018    0.26758    0.97117   1.00
C4       0.86101    0.16688    0.99851   1.00
C3c      0.87935    0.19657    1.01786   1.00
H1       0.87321    0.23973    1.02153   1.00
C3d      0.86850    0.11007    0.99414   1.00
C3       0.90665    0.17194    1.03262   1.00
O2       0.91556    0.19812    1.05194   1.00
C3       0.89688    0.08625    1.00867   1.00
H1       0.90390    0.04409    1.00437   1.00
C2       0.91638    0.11615    1.02823   1.00
C5       0.97197    0.24069    0.95542   1.00
H2       0.96158    0.25438    0.94011   1.00
H2       0.94631    0.18397    0.95641   1.00
C5       1.04845    0.27048    0.95768   1.00
H2       1.05900    0.25844    0.97318   1.00
H2       1.07358    0.32706    0.95647   1.00
C5       1.07609    0.24191    0.94151   1.00
H2       1.06531    0.25333    0.92599   1.00
H2       1.05276    0.18570    0.94315   1.00
H2       1.13227    0.26539    0.94312   1.00
C5       0.78657    0.03222    0.97310   1.00
C5       0.98276    0.25337    1.05419   1.00
H2       0.75319    0.05477    0.97517   1.00
H2       0.77171    -0.00952   0.98441   1.00
H2       0.99196    0.29502    1.04337   1.00
H2       1.02221    0.23852    1.05116   1.00
H2       1.06970    0.26798    1.09140   1.00
H2       0.67737    -0.00486   0.94432   1.00
H2       0.67021    -0.07786   0.95800   1.00
C2       0.78498    0.24418    0.95225   1.00
C3       0.73971    0.19635    0.96648   1.00
O2       0.67042    0.16147    0.96284   1.00
C3       0.85556    0.26797    0.95435   1.00
H1       0.89171    0.30589    0.94403   1.00
C3a      0.76535    0.17228    0.98196   1.00
H1       0.72968    0.13281    0.99201   1.00
C3b      0.88067    0.24232    0.96936   1.00
C4       0.83550    0.19400    0.98330   1.00
O_3      0.85607    0.08225    0.97485   1.00
C5       0.63816    0.18996    0.97429   1.00
H2       0.64663    0.18768    0.99089   1.00
C5       0.56177    0.14797    0.96970   1.00
H2       0.65750    0.24416    0.96995   1.00
H2       0.53964    0.10023    0.97882   1.00
H2       0.55626    0.13230    0.95347   1.00
C5       0.52368    0.18720    0.97395   1.00
H2       0.53416    0.20706    0.98974   1.00
H2       0.46767    0.15328    0.97208   1.00
H2       0.53934    0.23048    0.96310   1.00
C5       0.77563    0.00226    0.95184   1.00
H2       0.79962    -0.03025   0.95098   1.00
H2       0.80335    0.04496    0.94091   1.00
C5       0.69951    -0.03886   0.94621   1.00
H2       0.69310    -0.06571   0.93157   1.00
C5       0.64086    1.03719    0.91136   1.00
H2       0.69010    1.08428    0.90828   1.00
H2       0.65010    0.99410    0.90856   1.00
C5       0.62012    1.03715    0.93373   1.00
H2       0.64737    1.01959    0.94396   1.00
H2       0.56417    1.00285    0.93556   1.00
O_3      0.39514    0.91736    0.83519   1.00
C4       0.52896    1.02804    0.83167   1.00
C3c      0.56436    1.02426    0.84865   1.00
H1       0.57209    0.98113    0.85040   1.00
C3d      0.52030    1.08515    0.82953   1.00
C3       0.58941    1.07519    0.86372   1.00
O2       0.63061    1.07227    0.87857   1.00
C3       0.54404    1.13529    0.84470   1.00
H1       0.53408    1.17692    0.84275   1.00
C2       0.57929    1.13189    0.86208   1.00
C5       0.34542    0.93426    0.82934   1.00
H2       0.31053    0.89929    0.81743   1.00
H2       0.36968    0.98751    0.82343   1.00
C5       0.30342    0.92829    0.84800   1.00
H2       0.33853    0.96179    0.86011   1.00
H2       0.27895    0.87479    0.85366   1.00
C5       0.24946    0.94823    0.84313   1.00
H2       0.21451    0.91528    0.83095   1.00
H2       0.27395    1.00237    0.83815   1.00
H2       0.21830    0.94210    0.85684   1.00
C5       0.52312    1.11875    0.79675   1.00
C5       0.59088    1.03669    0.89563   1.00
H2       0.54499    1.08738    0.79117   1.00
H2       0.56578    1.17120    0.80010   1.00
H2       0.55277    0.98322    0.89136   1.00
H2       0.56211    1.06067    0.90204   1.00
H2       0.63425    1.08965    0.93887   1.00
H2       0.51694    1.09242    0.75371   1.00
H2       0.56500    1.18280    0.75975   1.00
C2       0.44493    0.87115    0.78651   1.00
C3       0.51335    0.92424    0.78500   1.00
O2       0.54828    0.93616    0.76693   1.00
C3       0.40664    0.86954    0.80368   1.00
H1       0.35470    0.82860    0.80556   1.00
C3a      0.54113    0.97490    0.80018   1.00
H1       0.59230    1.01731    0.79822   1.00
C3b      0.43372    0.92117    0.81842   1.00
C4       0.50140    0.97449    0.81673   1.00
O_3      0.48141    1.08878    0.81391   1.00
C5       0.59281    0.90955    0.76775   1.00
H2       0.63075    0.93339    0.78027   1.00
C5       0.63027    0.92576    0.74740   1.00
H2       0.56395    0.85326    0.77008   1.00
H2       0.67223    0.97985    0.74764   1.00
H2       0.59376    0.92213    0.73546   1.00
C5       0.65843    0.87789    0.74248   1.00
H2       0.69044    0.87807    0.75528   1.00
H2       0.69011    0.89478    0.72847   1.00
H2       0.61633    0.82459    0.73963   1.00
C5       0.47859    1.12283    0.78015   1.00
H2       0.46645    1.16327    0.78428   1.00
H2       0.42938    1.07365    0.77987   1.00
C5       0.51313    1.13702    0.75920   1.00
H2       0.48255    1.14672    0.74790   1.00
C5       -0.02350   0.57837    0.91565   1.00
H2       -0.06617   0.58886    0.91390   1.00
H2       0.02399    0.62852    0.91421   1.00
C5       -0.02739   0.54727    0.93685   1.00
H2       -0.00487   0.58789    0.94863   1.00
H2       0.00064    0.51854    0.93678   1.00
O_3      0.06967    0.45877    0.83128   1.00
C4       -0.02798   0.50105    0.83169   1.00
C3c      -0.01916   0.53496    0.85024   1.00
H1       0.02799    0.58168    0.85323   1.00
C3d      -0.09018   0.44077    0.82796   1.00
C3       -0.07022   0.50891    0.86526   1.00
O2       -0.06136   0.54905    0.88195   1.00
C3       -0.14060   0.41400    0.84305   1.00
H1       -0.18648   0.36637    0.83979   1.00
C2       -0.13223   0.44725    0.86198   1.00
C5       0.04427    0.39319    0.82281   1.00
H2       0.07671    0.39300    0.81012   1.00
H2       -0.00866   0.37280    0.81697   1.00
C5       0.04361    0.34652    0.83948   1.00
H2       0.01277    0.34819    0.85240   1.00
H2       0.09679    0.36700    0.84507   1.00
C5       0.01430    0.27327    0.83173   1.00
H2       0.04457    0.27130    0.81873   1.00
H2       -0.03959   0.25194    0.82679   1.00
H2       0.01562    0.24025    0.84399   1.00
C5       -0.12446   0.42664    0.79492   1.00
C5       -0.03002   0.53240    0.89775   1.00
H2       -0.08746   0.48062    0.79106   1.00
H2       -0.17407   0.42264    0.79912   1.00
H2       0.02140    0.54252    0.89287   1.00
H2       -0.06021   0.47750    0.90227   1.00
H2       -0.08146   0.51231    0.94150   1.00
H2       -0.09580   0.46175    0.75254   1.00
H2       -0.18517   0.42783    0.75886   1.00
C2       0.12826    0.57353    0.78633   1.00
C3       0.08205    0.59820    0.78690   1.00
O2       0.07528    0.63174    0.77037   1.00
C3       0.12356    0.52743    0.80160   1.00
H1       0.15928    0.50897    0.80190   1.00
C3a      0.03168    0.57524    0.80217   1.00
H1       -0.00573   0.59158    0.80171   1.00
C3b      0.07205    0.50302    0.81637   1.00
C4       0.02550    0.52677    0.81673   1.00
O_3      -0.09942   0.40274    0.81060   1.00
C5       0.11042    0.70274    0.77381   1.00
H2       0.09030    0.71603    0.78748   1.00
C5       0.09952    0.73598    0.75504   1.00
H2       0.16603    0.72249    0.77596   1.00
H2       0.04816    0.73103    0.75611   1.00
H2       0.09826    0.70556    0.74160   1.00
C5       0.15506    0.81138    0.75249   1.00
H2       0.15929    0.83981    0.76666   1.00
H2       0.14235    0.83528    0.73972   1.00
H2       0.20565    0.81653    0.74882   1.00
C5       -0.13501   0.38262    0.77631   1.00
H2       -0.18016   0.33126    0.77900   1.00
H2       -0.09000   0.37544    0.77478   1.00
C5       -0.14418   0.41485    0.75687   1.00
H2       -0.15878   0.37831    0.74405   1.00
C5       0.42096    0.39718    0.91557   1.00
H2       0.41066    0.34410    0.91378   1.00
H2       0.37074    0.39436    0.91409   1.00
C5       0.45182    0.42426    0.93680   1.00
H2       0.41109    0.40595    0.94854   1.00
H2       0.48040    0.48102    0.93677   1.00
O_3      0.54081    0.61079    0.83138   1.00
C4       0.49895    0.47097    0.83169   1.00
C3c      0.46490    0.44562    0.85020   1.00
H1       0.41806    0.44585    0.85317   1.00
C3d      0.55939    0.46931    0.82800   1.00
C3       0.49094    0.42061    0.86523   1.00
O2       0.45068    0.38908    0.88188   1.00
C3       0.58614    0.44564    0.84308   1.00
H1       0.63389    0.44760    0.83985   1.00
C2       0.55275    0.42052    0.86198   1.00
C5       0.60644    0.65123    0.82297   1.00
H2       0.60662    0.68390    0.81030   1.00
H2       0.62704    0.61886    0.81712   1.00
C5       0.65286    0.69716    0.83969   1.00
H2       0.65119    0.66458    0.85259   1.00
H2       0.63218    0.72967    0.84529   1.00
C5       0.72616    0.74135    0.83200   1.00
H2       0.72814    0.77367    0.81902   1.00
H2       0.74769    0.70898    0.82706   1.00
H2       0.75900    0.77564    0.84430   1.00
C5       0.57393    0.44955    0.79495   1.00
C5       0.46704    0.43689    0.89772   1.00
H2       0.51994    0.43243    0.79105   1.00
H2       0.57806    0.40400    0.79913   1.00
H2       0.45680    0.47814    0.89285   1.00
H2       0.52191    0.46172    0.90228   1.00
H2       0.48687    0.40527    0.94146   1.00
H2       0.53918    0.44338    0.75255   1.00
H2       0.57330    0.38809    0.75885   1.00
C2       0.42647    0.55473    0.78634   1.00
C3       0.40200    0.48388    0.78685   1.00
O2       0.36871    0.44368    0.77028   1.00
C3       0.47236    0.59608    0.80165   1.00
H1       0.49065    0.65022    0.80199   1.00
C3a      0.42496    0.45647    0.80212   1.00
H1       0.40879    0.40276    0.80162   1.00
C3b      0.49677    0.56899    0.81643   1.00
C4       0.47323    0.49871    0.81673   1.00
O_3      0.59755    0.49834    0.81067   1.00
C5       0.29767    0.40759    0.77366   1.00
H2       0.28436    0.37407    0.78730   1.00
C5       0.26472    0.36360    0.75485   1.00
H2       0.27773    0.44329    0.77582   1.00
H2       0.26984    0.31728    0.75589   1.00
H2       0.29521    0.39293    0.74144   1.00
C5       0.18928    0.34352    0.75224   1.00
H2       0.16074    0.31912    0.76638   1.00
H2       0.16558    0.30700    0.73945   1.00
H2       0.18399    0.38889    0.74860   1.00
C5       0.61808    0.48329    0.77638   1.00
H2       0.66948    0.48964    0.77910   1.00
H2       0.62509    0.53542    0.77488   1.00
C5       0.58613    0.44203    0.75690   1.00
H2       0.62278    0.46418    0.74411   1.00
C5       0.64518    0.40460    0.33898   1.00
H2       0.66453    0.37121    0.33336   1.00
H2       0.64835    0.40391    0.35579   1.00
C5       0.69086    0.47785    0.33082   1.00
H2       0.73784    0.50593    0.34018   1.00
H2       0.66240    0.50614    0.33107   1.00
O_3      0.29353    0.26626    0.34519   1.00
C4       0.36084    0.19435    0.33483   1.00
C3c      0.42966    0.23750    0.33990   1.00
H1       0.44392    0.25103    0.35558   1.00
C3d      0.34346    0.17656    0.31433   1.00
C3       0.48083    0.26456    0.32491   1.00
O2       0.54771    0.29951    0.33122   1.00
C3       0.39412    0.20447    0.29933   1.00
H1       0.37803    0.19129    0.28375   1.00
C2       0.46386    0.24877    0.30417   1.00
C5       0.24344    0.25749    0.33086   1.00
H2       0.19247    0.23878    0.33798   1.00
H2       0.23816    0.22058    0.31880   1.00
C5       0.26590    0.32647    0.32122   1.00
H2       0.31766    0.34605    0.31460   1.00
H2       0.27038    0.36272    0.33337   1.00
C5       0.21528    0.32105    0.30485   1.00
H2       0.16337    0.30108    0.31133   1.00
H2       0.21254    0.28670    0.29237   1.00
H2       0.23175    0.37221    0.29830   1.00
C5       0.25482    0.06848    0.30962   1.00
C5       0.57052    0.37007    0.33227   1.00
H2       0.25773    0.05329    0.32547   1.00
H2       0.28635    0.05505    0.29972   1.00
H2       0.53965    0.37977    0.34357   1.00
H2       0.56605    0.39134    0.31740   1.00
H2       0.70831    0.47727    0.31500   1.00
H2       0.13929    -0.05416   0.32518   1.00
H2       0.17753    -0.06987   0.30309   1.00
C2       0.20204    0.11663    0.37942   1.00
C3       0.23758    0.08156    0.37524   1.00
O2       0.21143    0.01483    0.38139   1.00
C3       0.22251    0.17907    0.36931   1.00
H1       0.19752    0.20803    0.37256   1.00
C3a      0.29088    0.10832    0.36086   1.00
H1       0.31498    0.07893    0.35698   1.00
C3b      0.27408    0.20443    0.35455   1.00
C4       0.30865    0.16898    0.35018   1.00
O_3      0.27597    0.13850    0.30837   1.00
C5       0.24575    0.01199    0.39890   1.00
H2       0.30150    0.03439    0.39601   1.00
C5       0.21475    -0.06335   0.40452   1.00
H2       0.23881    0.03997    0.41174   1.00
H2       0.23741    -0.08639   0.39451   1.00
H2       0.15938    -0.08913   0.40080   1.00
C5       0.22530    -0.07425   0.42703   1.00
H2       0.28037    -0.04383   0.43087   1.00
H2       0.20724    -0.12901   0.43013   1.00
H2       0.19554    -0.05925   0.43723   1.00
C5       0.18095    0.02879    0.30259   1.00
H2       0.17969    0.03490    0.28586   1.00
H2       0.15291    0.05247    0.30954   1.00
C5       0.14666    -0.04711   0.30843   1.00
H2       0.09549    -0.07569   0.30126   1.00
C5       0.59647    0.36885    0.33410   1.00
H2       0.57479    0.37735    0.32003   1.00
H2       0.57044    0.37861    0.34686   1.00
C5       0.58130    0.29422    0.33467   1.00
H2       0.52853    0.25938    0.34018   1.00
H2       0.61812    0.28995    0.34489   1.00
O_3      0.90936    0.63256    0.36766   1.00
C4       0.83405    0.63956    0.33470   1.00
C3c      0.76891    0.58166    0.33628   1.00
H1       0.73703    0.57615    0.34917   1.00
C3d      0.87440    0.64623    0.31764   1.00
C3       0.74426    0.52972    0.32153   1.00
O2       0.67713    0.47884    0.32280   1.00
C3       0.85053    0.59399    0.30312   1.00
H1       0.88424    0.60023    0.29068   1.00
C2       0.78508    0.53474    0.30460   1.00
C5       0.97747    0.65325    0.36244   1.00
H2       1.01483    0.69463    0.37253   1.00
H2       0.98868    0.67181    0.34646   1.00
C5       0.98688    0.59168    0.36468   1.00
H2       0.94827    0.54968    0.35504   1.00
H2       0.97618    0.57399    0.38073   1.00
C5       1.05920    0.60916    0.35859   1.00
H2       1.09804    0.65139    0.36806   1.00
H2       1.06911    0.62456    0.34236   1.00
H2       1.06558    0.56396    0.36074   1.00
C5       0.94105    0.75584    0.30680   1.00
C5       0.67226    0.42297    0.33381   1.00
H2       0.91248    0.77444    0.31601   1.00
H2       0.91827    0.74280    0.29130   1.00
H2       0.69142    0.43899    0.34959   1.00
H2       0.70282    0.40184    0.32682   1.00
H2       0.58454    0.27591    0.31918   1.00
H2       1.00390    0.90095    0.31353   1.00
H2       0.98999    0.87827    0.28681   1.00
C2       0.91486    0.79546    0.38019   1.00
C3       0.87419    0.79813    0.36439   1.00
O2       0.87389    0.85779    0.36040   1.00
C3       0.92509    0.73877    0.38109   1.00
H1       0.95450    0.73432    0.39329   1.00
C3a      0.84646    0.74574    0.34972   1.00
H1       0.81871    0.75050    0.33707   1.00
C3b      0.89927    0.68788    0.36611   1.00
C4       0.85973    0.69114    0.35024   1.00
O_3      0.94080    0.69965    0.31614   1.00
C5       0.81439    0.85427    0.36837   1.00
H2       0.76748    0.81094    0.36161   1.00
C5       0.81734    0.92150    0.36304   1.00
H2       0.81212    0.84790    0.38516   1.00
H2       0.80108    0.91889    0.34697   1.00
H2       0.87179    0.96256    0.36379   1.00
C5       0.77320    0.93793    0.37718   1.00
H2       0.72020    0.89410    0.37747   1.00
H2       0.77209    0.98398    0.37181   1.00
H2       0.79420    0.94928    0.39294   1.00
C5       1.01498    0.81270    0.30513   1.00
H2       1.04049    0.79857    0.29319   1.00
H2       1.04104    0.81553    0.31973   1.00
C5       1.02085    0.88202    0.30039   1.00
H2       1.07485    0.92063    0.29719   1.00
C5       0.76039    0.39616    0.33555   1.00
H2       0.79190    0.42047    0.32187   1.00
H2       0.79420    0.42163    0.34874   1.00
C5       0.69880    0.40809    0.33579   1.00
H2       0.71395    0.45970    0.34180   1.00
H2       0.65733    0.36899    0.34544   1.00
O_3      0.72102    0.08460    0.36649   1.00
C4       0.80554    0.16599    0.33471   1.00
C3c      0.80964    0.22965    0.33680   1.00
H1       0.83353    0.26037    0.35010   1.00
C3d      0.77509    0.12720    0.31713   1.00
C3       0.78234    0.25424    0.32204   1.00
O2       0.79559    0.32030    0.32391   1.00
C3       0.74669    0.15095    0.30258   1.00
H1       0.72171    0.11834    0.28970   1.00
C2       0.74973    0.21488    0.30457   1.00
C5       0.67643    0.01661    0.36045   1.00
H2       0.68111    -0.02088   0.37029   1.00
H2       0.68640    0.00802    0.34446   1.00
C5       0.60404    0.00383    0.36210   1.00
H2       0.59989    0.04252    0.35271   1.00
H2       0.59445    0.01193    0.37816   1.00
C5       0.55215    -0.06850   0.35509   1.00
H2       0.55633    -0.10739   0.36430   1.00
H2       0.56020    -0.07588   0.33885   1.00
H2       0.49947    -0.07741   0.35682   1.00
C5       0.82350    0.06558    0.30614   1.00
C5       0.74190    0.32129    0.33456   1.00
H2       0.86925    0.09449    0.31589   1.00
H2       0.83424    0.09018    0.29089   1.00
H2       0.73770    0.30049    0.35017   1.00
H2       0.69135    0.28993    0.32698   1.00
H2       0.67879    0.40585    0.32013   1.00
H2       0.90979    0.00731    0.31302   1.00
H2       0.90338    0.02380    0.28636   1.00
C2       0.88070    0.08505    0.38013   1.00
C3       0.92497    0.12871    0.36495   1.00
O2       0.98674    0.13231    0.36141   1.00
C3       0.81266    0.07183    0.38047   1.00
H1       0.77799    0.04005    0.39220   1.00
C3a      0.90020    0.15642    0.35031   1.00
H1       0.93364    0.18658    0.33811   1.00
C3b      0.78760    0.09769    0.36550   1.00
C4       0.83138    0.14023    0.35024   1.00
O_3      0.76517    0.06203    0.31506   1.00
C5       1.04018    0.19196    0.37020   1.00
H2       1.04240    0.23870    0.36382   1.00
C5       1.10667    0.19276    0.36533   1.00
H2       1.03385    0.19188    0.38697   1.00
H2       1.12179    0.21126    0.34949   1.00
H2       1.09549    0.13895    0.36560   1.00
C5       1.16479    0.23688    0.38022   1.00
H2       1.17160    0.28895    0.38096   1.00
H2       1.21361    0.24085    0.37521   1.00
H2       1.15403    0.21398    0.39575   1.00
C5       0.80979    -0.00710   0.30382   1.00
H2       0.77192    -0.03234   0.29142   1.00
H2       0.78552    -0.03542   0.31805   1.00
C5       0.87550    -0.00926   0.29951   1.00
H2       0.86274    -0.06223   0.29582   1.00
C5       0.84891    0.65129    0.74812   1.00
H2       0.86656    0.61352    0.74814   1.00
H2       0.89585    0.70221    0.74835   1.00
C5       0.80732    0.64263    0.72861   1.00
H2       0.84179    0.66880    0.71555   1.00
H2       0.77329    0.66438    0.73092   1.00
O_3      0.74764    0.72272    0.84021   1.00
C4       0.80530    0.63875    0.83495   1.00
C3c      0.83158    0.65113    0.81514   1.00
H1       0.87299    0.70111    0.81113   1.00
C3d      0.75200    0.57300    0.83993   1.00
C3       0.80449    0.59992    0.80016   1.00
O2       0.83814    0.61327    0.78188   1.00
C3       0.72404    0.52227    0.82496   1.00
H1       0.68161    0.47334    0.82930   1.00
C2       0.74951    0.53413    0.80479   1.00
C5       0.68583    0.69027    0.85118   1.00
H2       0.68682    0.72052    0.86465   1.00
H2       0.67419    0.63878    0.85651   1.00
C5       0.62943    0.68252    0.83703   1.00
H2       0.62968    0.65395    0.82330   1.00
H2       0.64124    0.73425    0.83195   1.00
C5       0.55977    0.64534    0.84757   1.00
H2       0.55930    0.67335    0.86137   1.00
H2       0.54686    0.59282    0.85202   1.00
H2       0.51940    0.64150    0.83714   1.00
C5       0.75643    0.54041    0.87238   1.00
C5       0.80934    0.63930    0.76796   1.00
H2       0.80990    0.58229    0.87450   1.00
H2       0.75714    0.49401    0.86703   1.00
H2       0.81512    0.68826    0.77372   1.00
H2       0.75368    0.60355    0.76542   1.00
H2       0.77586    0.58771    0.72427   1.00
H2       0.80823    0.57310    0.91332   1.00
H2       0.78194    0.48575    0.90629   1.00
C2       0.88031    0.79438    0.88052   1.00
C3       0.91234    0.75530    0.87743   1.00
O2       0.95588    0.75432    0.89189   1.00
C3       0.82568    0.78303    0.86761   1.00
H1       0.80124    0.81332    0.86924   1.00
C3a      0.88830    0.70516    0.86207   1.00
H1       0.91081    0.67302    0.86066   1.00
C3b      0.80048    0.73166    0.85279   1.00
C4       0.83169    0.69213    0.84994   1.00
O_3      0.72091    0.55961    0.85876   1.00
C5       1.02429    0.79669    0.88590   1.00
H2       1.03498    0.77962    0.87115   1.00
C5       1.06906    0.79194    0.90248   1.00
H2       1.03653    0.85066    0.88432   1.00
H2       1.07040    0.74388    0.90024   1.00
H2       1.04317    0.78686    0.91727   1.00
C5       1.14197    0.85390    0.90276   1.00
H2       1.16505    0.86140    0.88743   1.00
H2       1.17451    0.84597    0.91382   1.00
H2       1.14210    0.90135    0.90753   1.00
C5       0.71978    0.52501    0.89270   1.00
H2       0.67070    0.47603    0.89137   1.00
H2       0.70676    0.56551    0.89584   1.00
C5       0.76356    0.52173    0.91006   1.00
H2       0.73277    0.50348    0.92417   1.00
C5       0.59523    0.43440    0.82296   1.00
H2       0.63279    0.41649    0.82317   1.00
H2       0.59473    0.45247    0.83859   1.00
C5       0.61853    0.49368    0.80762   1.00
H2       0.65774    0.54270    0.81448   1.00
H2       0.57415    0.49867    0.80276   1.00
O_3      0.25152    0.19025    0.83171   1.00
C4       0.36113    0.16535    0.83492   1.00
C3c      0.41998    0.22968    0.83679   1.00
H1       0.42643    0.26076    0.84997   1.00
C3d      0.35419    0.12524    0.81777   1.00
C3       0.47076    0.25532    0.82168   1.00
O2       0.53053    0.31482    0.82571   1.00
C3       0.40404    0.15116    0.80251   1.00
H1       0.39534    0.11956    0.78930   1.00
C2       0.46351    0.21642    0.80406   1.00
C5       0.20194    0.14697    0.81755   1.00
H2       0.14993    0.11874    0.82433   1.00
H2       0.21462    0.10891    0.81125   1.00
C5       0.20098    0.19129    0.80039   1.00
H2       0.25340    0.22095    0.79398   1.00
H2       0.18765    0.22866    0.80683   1.00
C5       0.14992    0.14783    0.78389   1.00
H2       0.09754    0.11771    0.79021   1.00
H2       0.16452    0.11214    0.77696   1.00
H2       0.14884    0.18122    0.77170   1.00
C5       0.30003    0.01095    0.82412   1.00
C5       0.52652    0.37114    0.81815   1.00
H2       0.30558    0.01875    0.84082   1.00
H2       0.34416    0.00700    0.81826   1.00
H2       0.48435    0.37446    0.82583   1.00
H2       0.51636    0.36747    0.80146   1.00
H2       0.64277    0.48534    0.79397   1.00
H2       0.21606    -0.10445   0.84981   1.00
H2       0.27198    -0.11910   0.83339   1.00
C2       0.20142    0.08782    0.87922   1.00
C3       0.25773    0.07781    0.88171   1.00
O2       0.25444    0.02967    0.89520   1.00
C3       0.20108    0.12660    0.86244   1.00
H1       0.15958    0.13667    0.86039   1.00
C3a      0.31091    0.10485    0.86728   1.00
H1       0.35172    0.09345    0.86877   1.00
C3b      0.25296    0.15156    0.84777   1.00
C4       0.30838    0.14067    0.85009   1.00
O_3      0.29495    0.06384    0.81446   1.00
C5       0.29014    0.06151    0.91314   1.00
H2       0.34493    0.09857    0.90994   1.00
C5       0.28510    0.00513    0.92709   1.00
H2       0.26711    0.08905    0.92082   1.00
H2       0.32322    -0.00913   0.92204   1.00
H2       0.23390    -0.04061   0.92470   1.00
C5       0.29581    0.02593    0.94965   1.00
H2       0.34469    0.07460    0.95151   1.00
H2       0.29751    -0.01398   0.95909   1.00
H2       0.25296    0.03201    0.95565   1.00
C5       0.23448    -0.05552   0.81976   1.00
H2       0.23484    -0.06920   0.80355   1.00
H2       0.19077    -0.04645   0.82168   1.00
C5       0.22587    -0.11356   0.83384   1.00
H2       0.18151    -0.16262   0.82886   1.00
C5       0.57590    0.18799    0.82817   1.00
H2       0.59906    0.24418    0.82702   1.00
H2       0.56184    0.17525    0.84438   1.00
C5       0.51161    0.15281    0.81460   1.00
H2       0.46691    0.15044    0.82243   1.00
H2       0.49974    0.10010    0.81080   1.00
O_3      0.79499    0.05646    0.83472   1.00
C4       0.83473    0.19578    0.83490   1.00
C3c      0.77466    0.19833    0.83794   1.00
H1       0.74698    0.18005    0.85204   1.00
C3d      0.87055    0.22075    0.81653   1.00
C3       0.74887    0.22340    0.82286   1.00
O2       0.69466    0.23205    0.82785   1.00
C3       0.84431    0.24454    0.80133   1.00
H1       0.87226    0.26091    0.78722   1.00
C2       0.78324    0.24678    0.80407   1.00
C5       0.83017    0.04045    0.82003   1.00
H2       0.85591    0.01405    0.82676   1.00
H2       0.86953    0.08733    0.81215   1.00
C5       0.77819    -0.00684   0.80458   1.00
H2       0.75112    0.01878    0.79827   1.00
H2       0.73952    -0.05372   0.81258   1.00
C5       0.81265    -0.02493   0.78759   1.00
H2       0.84019    -0.05009   0.79380   1.00
H2       0.84956    0.02160    0.77914   1.00
H2       0.77369    -0.06070   0.77669   1.00
C5       0.98611    0.27201    0.81978   1.00
C5       0.63277    0.17321    0.82244   1.00
H2       0.98385    0.27551    0.83656   1.00
H2       0.99348    0.32035    0.81296   1.00
H2       0.62686    0.12806    0.83101   1.00
H2       0.63019    0.16104    0.80590   1.00
H2       0.51883    0.18204    0.80026   1.00
H2       1.10551    0.29869    0.84279   1.00
H2       1.12212    0.36626    0.82486   1.00
C2       0.91158    0.11307    0.87924   1.00
C3       0.92934    0.18229    0.88027   1.00
O2       0.98368    0.22759    0.89201   1.00
C3       0.86560    0.07170    0.86395   1.00
H1       0.84961    0.01811    0.86309   1.00
C3a      0.90256    0.20878    0.86587   1.00
H1       0.91969    0.26273    0.86615   1.00
C3b      0.84078    0.09869    0.84927   1.00
C4       0.85930    0.16775    0.85012   1.00
O_3      0.92704    0.21463    0.81217   1.00
C5       0.96007    0.24076    0.91032   1.00
H2       0.92653    0.26293    0.90741   1.00
C5       1.02299    0.29201    0.92226   1.00
H2       0.93098    0.19319    0.91939   1.00
H2       1.04074    0.34387    0.91598   1.00
H2       1.06429    0.28006    0.91922   1.00
C5       1.00955    0.29056    0.94524   1.00
H2       0.96475    0.29720    0.94789   1.00
H2       1.05455    0.33224    0.95315   1.00
H2       1.00014    0.24163    0.95225   1.00
C5       1.04686    0.26368    0.81431   1.00
H2       1.05612    0.27202    0.79769   1.00
H2       1.03293    0.20987    0.81740   1.00
C5       1.11114    0.31277    0.82639   1.00
H2       1.15589    0.31033    0.82053   1.00
C5       -0.03442   0.36594    0.41223   1.00
H2       -0.04683   0.40193    0.41997   1.00
H2       0.02174    0.38885    0.41350   1.00
C5       -0.07128   0.29599    0.42308   1.00
H2       -0.04252   0.29628    0.43681   1.00
H2       -0.07637   0.25514    0.41260   1.00
O_3      -0.00781   0.38257    0.30696   1.00
C4       -0.02752   0.47230    0.33183   1.00
C3c      -0.01442   0.45983    0.35172   1.00
H1       0.03624    0.47061    0.35582   1.00
C3d      -0.09365   0.45882    0.32687   1.00
C3       -0.06627   0.43251    0.36651   1.00
O2       -0.04781   0.42952    0.38620   1.00
C3       -0.14569   0.43040    0.34145   1.00
H1       -0.19615   0.41866    0.33675   1.00
C2       -0.13349   0.41677    0.36158   1.00
C5       -0.05640   0.35439    0.29121   1.00
H2       -0.03207   0.36313    0.27598   1.00
H2       -0.09081   0.37644    0.29118   1.00
C5       -0.09858   0.27802    0.29484   1.00
H2       -0.12135   0.26930    0.31030   1.00
H2       -0.06382   0.25647    0.29466   1.00
C5       -0.15451   0.24355    0.27874   1.00
H2       -0.13215   0.25245    0.26325   1.00
H2       -0.19062   0.26335    0.27938   1.00
H2       -0.18383   0.18757    0.28138   1.00
C5       -0.09597   0.53285    0.30386   1.00
C5       -0.05467   0.36493    0.39002   1.00
H2       -0.04066   0.56983    0.30576   1.00
H2       -0.12527   0.54711    0.31444   1.00
H2       -0.02008   0.35663    0.37985   1.00
H2       -0.10778   0.32210    0.38734   1.00
H2       -0.12302   0.28373    0.42845   1.00
H2       -0.02978   0.63701    0.27327   1.00
H2       -0.09893   0.64114    0.28593   1.00
C2       0.12600    0.54804    0.28562   1.00
C3       0.11941    0.59395    0.29863   1.00
O2       0.14945    0.66214    0.29366   1.00
C3       0.08322    0.47726    0.28894   1.00
H1       0.08819    0.44080    0.27958   1.00
C3a      0.06972    0.56855    0.31411   1.00
H1       0.06269    0.60433    0.32319   1.00
C3b      0.03240    0.45218    0.30393   1.00
C4       0.02521    0.49788    0.31664   1.00
O_3      -0.11045   0.46533    0.30714   1.00
C5       0.20976    0.70041    0.30499   1.00
H2       0.19910    0.69491    0.32163   1.00
C5       0.23920    0.77517    0.29889   1.00
H2       0.24763    0.68402    0.30158   1.00
H2       0.21066    0.79602    0.30712   1.00
H2       0.22838    0.77617    0.28245   1.00
C5       0.31632    0.81890    0.30311   1.00
H2       0.32676    0.81301    0.31923   1.00
H2       0.33464    0.87376    0.30009   1.00
H2       0.34644    0.80403    0.29302   1.00
C5       -0.11639   0.53723    0.28216   1.00
H2       -0.17309   0.50941    0.28122   1.00
H2       -0.09840   0.50979    0.27214   1.00
C5       -0.08630   0.61156    0.27504   1.00
H2       -0.10789   0.61288    0.26002   1.00
C5       0.38761    1.04426    0.40916   1.00
H2       0.43289    1.05289    0.41805   1.00
H2       0.35061    0.98875    0.41022   1.00
C5       0.35712    1.08575    0.41860   1.00
H2       0.32431    1.05846    0.43186   1.00
H2       0.32607    1.09421    0.40711   1.00
O_3      0.39988    1.01661    0.30429   1.00
C4       0.49979    1.02746    0.33185   1.00
C3c      0.46976    1.01628    0.35114   1.00
H1       0.42633    0.96712    0.35477   1.00
C3d      0.55694    1.09158    0.32753   1.00
C3       0.49439    1.06820    0.36589   1.00
O2       0.46782    1.05106    0.38517   1.00
C3       0.58078    1.14379    0.34205   1.00
H1       0.62322    1.19284    0.33780   1.00
C2       0.55054    1.13357    0.36156   1.00
C5       0.42733    1.06528    0.28854   1.00
H2       0.41380    1.04121    0.27323   1.00
H2       0.48405    1.09603    0.28963   1.00
C5       0.39794    1.11235    0.29069   1.00
H2       0.40981    1.13493    0.30620   1.00
H2       0.34137    1.08121    0.28939   1.00
C5       0.42713    1.16857    0.27452   1.00
H2       0.41588    1.14637    0.25900   1.00
H2       0.48334    1.20116    0.27625   1.00
H2       0.40394    1.20155    0.27605   1.00
C5       0.63487    1.08692    0.30666   1.00
C5       0.41282    1.06346    0.38730   1.00
H2       0.61196    1.03095    0.30874   1.00
H2       0.67644    1.11360    0.31804   1.00
H2       0.37129    1.03120    0.37642   1.00
H2       0.42807    1.11785    0.38424   1.00
H2       0.39809    1.13615    0.42439   1.00
H2       0.67183    1.01427    0.27804   1.00
H2       0.74478    1.07982    0.29182   1.00
C2       0.42253    0.87414    0.28558   1.00
C3       0.46994    0.87636    0.29991   1.00
O2       0.50450    0.84157    0.29638   1.00
C3       0.39913    0.92127    0.28757   1.00
H1       0.36152    0.91976    0.27717   1.00
C3a      0.49398    0.92607    0.31539   1.00
H1       0.53315    0.92960    0.32553   1.00
C3b      0.42477    0.97203    0.30259   1.00
C4       0.47268    0.97484    0.31663   1.00
O_3      0.58513    1.10682    0.30829   1.00
C5       0.47546    0.78081    0.30783   1.00
H2       0.47750    0.79158    0.32443   1.00
C5       0.51714    0.74599    0.30337   1.00
H2       0.42129    0.74622    0.30341   1.00
H2       0.56471    0.77133    0.31257   1.00
H2       0.53312    0.75606    0.28717   1.00
C5       0.47741    0.66867    0.30763   1.00
H2       0.45725    0.65939    0.32338   1.00
H2       0.51108    0.64625    0.30586   1.00
H2       0.43429    0.64126    0.29671   1.00
C5       0.66525    1.10579    0.28545   1.00
H2       0.69807    1.16226    0.28460   1.00
H2       0.62281    1.09107    0.27444   1.00
C5       0.70608    1.07037    0.27995   1.00
H2       0.73326    1.09069    0.26535   1.00
C5       0.65579    0.61193    0.40929   1.00
H2       0.61915    0.56652    0.41814   1.00
H2       0.63710    0.64879    0.41036   1.00
C5       0.72770    0.64253    0.41878   1.00
H2       0.73299    0.67519    0.43207   1.00
H2       0.76726    0.67377    0.40733   1.00
O_3      0.61679    0.60051    0.30439   1.00
C4       0.52768    0.50021    0.33185   1.00
C3c      0.54628    0.53007    0.35116   1.00
H1       0.54035    0.57337    0.35481   1.00
C3d      0.53490    0.44322    0.32750   1.00
C3       0.57357    0.50544    0.36592   1.00
O2       0.58275    0.53182    0.38522   1.00
C3       0.56328    0.41939    0.34202   1.00
H1       0.57009    0.37709    0.33775   1.00
C2       0.58305    0.44947    0.36156   1.00
C5       0.63829    0.57333    0.28864   1.00
H2       0.62783    0.58694    0.27333   1.00
H2       0.61248    0.51662    0.28969   1.00
C5       0.71476    0.60292    0.29085   1.00
H2       0.72540    0.59097    0.30635   1.00
H2       0.74005    0.65949    0.28959   1.00
C5       0.74210    0.57403    0.27468   1.00
H2       0.73123    0.58537    0.25915   1.00
H2       0.71862    0.51782    0.27636   1.00
H2       0.79827    0.59737    0.27625   1.00
C5       0.45264    0.36534    0.30655   1.00
C5       0.65005    0.58695    0.38741   1.00
H2       0.41942    0.38807    0.30862   1.00
H2       0.43776    0.32368    0.31789   1.00
H2       0.65929    0.62853    0.37656   1.00
H2       0.68934    0.57189    0.38436   1.00
H2       0.73724    0.60162    0.42456   1.00
H2       0.34323    0.32832    0.27785   1.00
H2       0.33594    0.25534    0.29158   1.00
C2       0.45164    0.57749    0.28558   1.00
C3       0.40641    0.52987    0.29986   1.00
O2       0.33709    0.49516    0.29628   1.00
C3       0.52219    0.60108    0.28763   1.00
H1       0.55831    0.63884    0.27726   1.00
C3a      0.43206    0.50582    0.31534   1.00
H1       0.39641    0.46650    0.32544   1.00
C3b      0.54731    0.57544    0.30264   1.00
C4       0.50217    0.52732    0.31663   1.00
O_3      0.52222    0.41522    0.30824   1.00
C5       0.30510    0.52393    0.30773   1.00
H2       0.31370    0.52177    0.32432   1.00
C5       0.22865    0.48209    0.30320   1.00
H2       0.32456    0.57811    0.30335   1.00
H2       0.20647    0.43444    0.31237   1.00
H2       0.22294    0.46627    0.28699   1.00
C5       0.19082    0.52158    0.30746   1.00
H2       0.20150    0.54159    0.32322   1.00
H2       0.13477    0.48779    0.30564   1.00
H2       0.20651    0.56478    0.29657   1.00
C5       0.44141    0.33516    0.28531   1.00
H2       0.46522    0.30249    0.28446   1.00
H2       0.46913    0.37773    0.27434   1.00
C5       0.36523    0.29419    0.27975   1.00
H2       0.35858    0.26717    0.26513   1.00
C5       0.31803    0.37513    0.24327   1.00
H2       0.36593    0.42327    0.23987   1.00
H2       0.32893    0.33336    0.24006   1.00
C5       0.29932    0.37424    0.26589   1.00
H2       0.32896    0.35822    0.27565   1.00
H2       0.24389    0.33834    0.26820   1.00
O_3      0.06414    0.24749    0.16950   1.00
C4       0.19560    0.36139    0.16500   1.00
C3c      0.23371    0.35920    0.18150   1.00
H1       0.24357    0.31733    0.18286   1.00
C3d      0.18415    0.41690    0.16336   1.00
C3       0.25877    0.41009    0.19658   1.00
O2       0.30252    0.40899    0.21086   1.00
C3       0.20792    0.46696    0.17855   1.00
H1       0.19583    0.50727    0.17702   1.00
C2       0.24591    0.46514    0.19545   1.00
C5       0.01210    0.26193    0.16440   1.00
H2       -0.02332   0.22624    0.15271   1.00
H2       0.03397    0.31504    0.15854   1.00
C5       -0.02843   0.25434    0.18355   1.00
H2       0.00729    0.28860    0.19542   1.00
H2       -0.05054   0.20098    0.18916   1.00
C5       -0.08482   0.27157    0.17951   1.00
H2       -0.12041   0.23786    0.16757   1.00
H2       -0.06265   0.32556    0.17458   1.00
H2       -0.11484   0.26428    0.19357   1.00
C5       0.18205    0.44985    0.13080   1.00
C5       0.26536    0.37252    0.22819   1.00
H2       0.20504    0.42008    0.12473   1.00
H2       0.22372    0.50296    0.13395   1.00
H2       0.22826    0.31860    0.22405   1.00
H2       0.23573    0.39478    0.23512   1.00
H2       0.31210    0.42621    0.27119   1.00
H2       0.17214    0.42379    0.08769   1.00
H2       0.21804    0.51424    0.09371   1.00
C2       0.11152    0.20432    0.11990   1.00
C3       0.17890    0.25914    0.11787   1.00
O2       0.21205    0.27225    0.09945   1.00
C3       0.07442    0.20116    0.13754   1.00
H1       0.02337    0.15893    0.13980   1.00
C3a      0.20678    0.30989    0.13303   1.00
H1       0.25698    0.35353    0.13069   1.00
C3b      0.10149    0.25283    0.15227   1.00
C4       0.16809    0.30783    0.15007   1.00
O_3      0.14264    0.41880    0.14827   1.00
C5       0.25865    0.24809    0.09951   1.00
H2       0.29771    0.27303    0.11170   1.00
C5       0.29395    0.26550    0.07880   1.00
H2       0.23183    0.19181    0.10184   1.00
H2       0.33451    0.32019    0.07888   1.00
H2       0.25557    0.26041    0.06732   1.00
C5       0.32413    0.21985    0.07321   1.00
H2       0.35815    0.22139    0.08559   1.00
H2       0.35420    0.23769    0.05891   1.00
H2       0.28310    0.16593    0.07054   1.00
C5       0.13466    0.45196    0.11480   1.00
H2       0.12105    0.49101    0.11937   1.00
H2       0.08650    0.40178    0.11482   1.00
C5       0.16699    0.46728    0.09352   1.00
H2       0.13417    0.47546    0.08269   1.00
C5       0.38351    0.57961    0.17046   1.00
H2       0.39501    0.56519    0.18543   1.00
H2       0.39735    0.55275    0.15896   1.00
C5       0.30653    0.55570    0.16920   1.00
H2       0.27649    0.50064    0.16517   1.00
H2       0.29752    0.58589    0.15754   1.00
O_3      0.62319    0.89229    0.12953   1.00
C4       0.63960    0.83417    0.16531   1.00
C3c      0.58667    0.76594    0.16527   1.00
H1       0.58512    0.73163    0.15360   1.00
C3d      0.64123    0.87778    0.18081   1.00
C3       0.53463    0.74113    0.17999   1.00
O2       0.48937    0.67206    0.18045   1.00
C3       0.58878    0.85357    0.19527   1.00
H1       0.59087    0.88952    0.20643   1.00
C2       0.53447    0.78491    0.19531   1.00
C5       0.63634    0.95958    0.13242   1.00
H2       0.67551    0.99626    0.12167   1.00
H2       0.65426    0.97748    0.14819   1.00
C5       0.57007    0.95955    0.12878   1.00
H2       0.53040    0.92149    0.13914   1.00
H2       0.55299    0.94222    0.11294   1.00
C5       0.57925    1.03060    0.13234   1.00
H2       0.61914    1.06895    0.12215   1.00
H2       0.59401    1.04695    0.14834   1.00
H2       0.53069    1.02992    0.12917   1.00
C5       0.74848    0.95709    0.19088   1.00
C5       0.43111    0.65677    0.16874   1.00
H2       0.77194    0.93017    0.18316   1.00
H2       0.73733    0.93931    0.20694   1.00
H2       0.44588    0.67151    0.15259   1.00
H2       0.40476    0.68450    0.17414   1.00
H2       0.28649    0.56127    0.18415   1.00
H2       0.89406    1.03190    0.18426   1.00
H2       0.87138    1.02465    0.21096   1.00
C2       0.79496    0.91456    0.11966   1.00
C3       0.80268    0.88239    0.13698   1.00
O2       0.86574    0.89115    0.14198   1.00
C3       0.73373    0.91635    0.11740   1.00
H1       0.72551    0.93904    0.10406   1.00
C3a      0.75056    0.85465    0.15173   1.00
H1       0.75890    0.83367    0.16545   1.00
C3b      0.68295    0.89067    0.13240   1.00
C4       0.69115    0.85964    0.14976   1.00
O_3      0.68926    0.94656    0.18065   1.00
C5       0.86972    0.83316    0.13631   1.00
H2       0.82974    0.78635    0.14409   1.00
C5       0.94034    0.84634    0.14264   1.00
H2       0.86355    0.82486    0.11960   1.00
H2       0.93937    0.83613    0.15919   1.00
H2       0.97685    0.90176    0.14049   1.00
C5       0.96356    0.80317    0.13059   1.00
H2       0.92396    0.74840    0.13159   1.00
H2       1.01231    0.80985    0.13675   1.00
H2       0.97317    0.81901    0.11430   1.00
C5       0.79919    1.03334    0.19066   1.00
H2       0.78080    1.05889    0.20129   1.00
H2       0.79912    1.05311    0.17519   1.00
C5       0.87166    1.04930    0.19633   1.00
H2       0.90557    1.10524    0.19808   1.00
C5       0.39597    0.76009    0.16442   1.00
H2       0.42034    0.79164    0.17809   1.00
H2       0.42142    0.79385    0.15122   1.00
C5       0.40782    0.69845    0.16419   1.00
H2       0.45940    0.71353    0.15817   1.00
H2       0.36867    0.65697    0.15455   1.00
O_3      0.08445    0.72097    0.13354   1.00
C4       0.16599    0.80555    0.16529   1.00
C3c      0.22961    0.80956    0.16318   1.00
H1       0.26030    0.83339    0.14988   1.00
C3d      0.12724    0.77517    0.18288   1.00
C3       0.25420    0.78226    0.17795   1.00
O2       0.32023    0.79544    0.17607   1.00
C3       0.15099    0.74678    0.19743   1.00
H1       0.11841    0.72185    0.21032   1.00
C2       0.21487    0.74973    0.19543   1.00
C5       0.01647    0.67646    0.13960   1.00
H2       -0.02103   0.68114    0.12976   1.00
H2       0.00794    0.68649    0.15559   1.00
C5       0.00361    0.60403    0.13797   1.00
H2       0.04230    0.59986    0.14734   1.00
H2       0.01165    0.59437    0.12190   1.00
C5       -0.06872   0.55222    0.14500   1.00
H2       -0.10761   0.55642    0.13579   1.00
H2       -0.07604   0.56033    0.16124   1.00
H2       -0.07769   0.49951    0.14327   1.00
C5       0.06575    0.82372    0.19388   1.00
C5       0.32112    0.74168    0.16542   1.00
H2       0.09467    0.86943    0.18411   1.00
H2       0.09039    0.83448    0.20912   1.00
H2       0.30029    0.73746    0.14981   1.00
H2       0.28975    0.69116    0.17302   1.00
H2       0.40561    0.67848    0.17984   1.00
H2       0.00759    0.91011    0.18699   1.00
H2       0.02414    0.90375    0.21365   1.00
C2       0.08505    0.88070    0.11987   1.00
C3       0.12878    0.92500    0.13503   1.00
O2       0.13247    0.98681    0.13857   1.00
C3       0.07175    0.81264    0.11955   1.00
H1       0.03991    0.77795    0.10783   1.00
C3a      0.15649    0.90022    0.14968   1.00
H1       0.18671    0.93368    0.16186   1.00
C3b      0.09761    0.78758    0.13451   1.00
C4       0.14023    0.83138    0.14976   1.00
O_3      0.06211    0.76533    0.18497   1.00
C5       0.19212    1.04018    0.12975   1.00
H2       0.23885    1.04236    0.13613   1.00
C5       0.19301    1.10673    0.13461   1.00
H2       0.19198    1.03380    0.11298   1.00
H2       0.21156    1.12187    0.15044   1.00
H2       0.13921    1.09560    0.13435   1.00
C5       0.23712    1.16478    0.11971   1.00
H2       0.28917    1.17153    0.11896   1.00
H2       0.24116    1.21364    0.12470   1.00
H2       0.21418    1.15400    0.10418   1.00
C5       -0.00690   0.81008    0.19621   1.00
H2       -0.03213   0.77226    0.20862   1.00
H2       -0.03527   0.78579    0.18199   1.00
C5       -0.00897   0.87585    0.20051   1.00
H2       -0.06191   0.86315    0.20421   1.00
C5       1.01818    0.58049    0.58266   1.00
H2       1.05806    0.63513    0.58357   1.00
H2       0.96860    0.57930    0.58345   1.00
C5       1.02474    0.55044    0.56226   1.00
H2       0.99996    0.56329    0.54978   1.00
H2       1.00035    0.49399    0.56343   1.00
O_3      0.93814    0.38753    0.67108   1.00
C4       1.02794    0.52907    0.66830   1.00
C3c      1.01690    0.54834    0.64906   1.00
H1       0.96798    0.54331    0.64550   1.00
C3d      1.09236    0.53695    0.67272   1.00
C3       1.06804    0.57335    0.63405   1.00
O2       1.05642    0.59891    0.61651   1.00
C3       1.14296    0.56061    0.65769   1.00
H1       1.19074    0.56351    0.66154   1.00
C2       1.13240    0.57963    0.63808   1.00
C5       0.96778    0.35316    0.68086   1.00
H2       0.93664    0.32199    0.69395   1.00
H2       1.02000    0.38990    0.68650   1.00
C5       0.97249    0.30588    0.66542   1.00
H2       1.00197    0.33676    0.65208   1.00
H2       0.92002    0.26904    0.66002   1.00
C5       1.00652    0.26813    0.67462   1.00
H2       0.97761    0.23756    0.68804   1.00
H2       1.05974    0.30476    0.67937   1.00
H2       1.00815    0.23271    0.66325   1.00
C5       1.12593    0.56600    0.70558   1.00
C5       1.02804    0.54720    0.60159   1.00
H2       1.08602    0.57986    0.70854   1.00
H2       1.17372    0.61278    0.70083   1.00
H2       0.97800    0.50450    0.60688   1.00
H2       1.06152    0.52526    0.59809   1.00
H2       1.07938    0.57225    0.55779   1.00
H2       1.09512    0.57861    0.74733   1.00
H2       1.18343    0.63770    0.74070   1.00
C2       0.87206    0.44552    0.71376   1.00
C3       0.91417    0.51687    0.71196   1.00
O2       0.91766    0.55933    0.72749   1.00
C3       0.88057    0.40327    0.69965   1.00
H1       0.84797    0.34855    0.70030   1.00
C3a      0.96440    0.54405    0.69664   1.00
H1       0.99879    0.59855    0.69619   1.00
C3b      0.93200    0.43035    0.68485   1.00
C4       0.97452    0.50123    0.68327   1.00
O_3      1.10417    0.51394    0.69088   1.00
C5       0.87819    0.58980    0.72273   1.00
H2       0.89647    0.62047    0.70849   1.00
C5       0.88562    0.63672    0.74045   1.00
H2       0.82343    0.55047    0.72082   1.00
H2       0.93513    0.68508    0.73883   1.00
H2       0.88921    0.61187    0.75461   1.00
C5       0.82623    0.65147    0.74182   1.00
H2       0.81998    0.67121    0.72702   1.00
H2       0.83624    0.69013    0.75377   1.00
H2       0.77741    0.60466    0.74602   1.00
C5       1.13946    0.53891    0.72512   1.00
H2       1.18693    0.53625    0.72314   1.00
H2       1.09703    0.48568    0.72743   1.00
C5       1.14532    0.58321    0.74357   1.00
H2       1.16217    0.56623    0.75709   1.00
C5       0.57964    -0.02401   0.58451   1.00
H2       0.58977    -0.06690   0.58633   1.00
H2       0.62992    0.02329    0.58601   1.00
C5       0.54901    -0.02770   0.56325   1.00
H2       0.58985    -0.00538   0.55154   1.00
H2       0.52057    0.00063    0.56323   1.00
O_3      0.45958    0.07030    0.66853   1.00
C4       0.50104    -0.02798   0.66832   1.00
C3c      0.53523    -0.01936   0.64983   1.00
H1       0.58217    0.02762    0.64688   1.00
C3d      0.44047    -0.08998   0.67197   1.00
C3       0.50919    -0.07042   0.63480   1.00
O2       0.54955    -0.06181   0.61819   1.00
C3       0.41372    -0.14039   0.65689   1.00
H1       0.36588    -0.18610   0.66009   1.00
C2       0.44726    -0.13221   0.63802   1.00
C5       0.39390    0.04527    0.67688   1.00
H2       0.39372    0.07782    0.68954   1.00
H2       0.37312    -0.00771   0.68274   1.00
C5       0.34770    0.04494    0.66012   1.00
H2       0.34938    0.01398    0.64723   1.00
H2       0.36858    0.09815    0.65451   1.00
C5       0.27436    0.01603    0.66775   1.00
H2       0.27237    0.04641    0.68071   1.00
H2       0.25265    -0.03790   0.67269   1.00
H2       0.24169    0.01759    0.65541   1.00
C5       0.42556    -0.12428   0.70502   1.00
C5       0.53347    -0.03024   0.60232   1.00
H2       0.47954    -0.08753   0.70895   1.00
H2       0.42130    -0.17404   0.70086   1.00
H2       0.54382    0.02129    0.60717   1.00
H2       0.47863    -0.06015   0.59772   1.00
H2       0.51388    -0.08171   0.55858   1.00
H2       0.45997    -0.09578   0.74745   1.00
H2       0.42566    -0.18522   0.74115   1.00
C2       0.57354    0.12829    0.71366   1.00
C3       0.59781    0.08174    0.71320   1.00
O2       0.63088    0.07471    0.72980   1.00
C3       0.52784    0.12389    0.69830   1.00
H1       0.50970    0.15987    0.69793   1.00
C3a      0.57485    0.03136    0.69793   1.00
H1       0.59087    -0.00629   0.69846   1.00
C3b      0.50342    0.07238    0.68353   1.00
C4       0.52678    0.02550    0.68327   1.00
O_3      0.40220    -0.09899   0.68926   1.00
C5       0.70195    0.10948    0.72648   1.00
H2       0.71529    0.08920    0.71286   1.00
C5       0.73464    0.09831    0.74532   1.00
H2       0.72205    0.16514    0.72431   1.00
H2       0.72937    0.04681    0.74430   1.00
H2       0.70408    0.09725    0.75870   1.00
C5       0.81012    0.15352    0.74798   1.00
H2       0.83875    0.15757    0.73387   1.00
H2       0.83362    0.14059    0.76081   1.00
H2       0.81554    0.20425    0.75161   1.00
C5       0.38129    -0.13457   0.72355   1.00
H2       0.32984    -0.17952   0.72080   1.00
H2       0.37442    -0.08935   0.72502   1.00
C5       0.41298    -0.14400   0.74307   1.00
H2       0.37624    -0.15840   0.75583   1.00
C5       0.39724    0.42100    0.58442   1.00
H2       0.34416    0.41069    0.58621   1.00
H2       0.39443    0.37079    0.58590   1.00
C5       0.42433    0.45188    0.56320   1.00
H2       0.40603    0.41115    0.55145   1.00
H2       0.48109    0.48047    0.56323   1.00
O_3      0.61080    0.54084    0.66863   1.00
C4       0.47097    0.49895    0.66831   1.00
C3c      0.44564    0.46490    0.64979   1.00
H1       0.44588    0.41808    0.64682   1.00
C3d      0.46929    0.55938    0.67201   1.00
C3       0.42062    0.49095    0.63477   1.00
O2       0.38911    0.45070    0.61812   1.00
C3       0.44562    0.58613    0.65692   1.00
H1       0.44757    0.63387    0.66016   1.00
C2       0.42052    0.55275    0.63802   1.00
C5       0.65122    0.60647    0.67704   1.00
H2       0.68389    0.60665    0.68971   1.00
H2       0.61884    0.62705    0.68289   1.00
C5       0.69716    0.65290    0.66032   1.00
H2       0.66458    0.65123    0.64742   1.00
H2       0.72968    0.63223    0.65473   1.00
C5       0.74133    0.72620    0.66802   1.00
H2       0.77364    0.72818    0.68100   1.00
H2       0.70894    0.74771    0.67295   1.00
H2       0.77562    0.75905    0.65572   1.00
C5       0.44951    0.57389    0.70505   1.00
C5       0.43694    0.46708    0.60228   1.00
H2       0.43240    0.51991    0.70895   1.00
H2       0.40395    0.57802    0.70087   1.00
H2       0.47818    0.45685    0.60715   1.00
H2       0.46176    0.52195    0.59772   1.00
H2       0.40533    0.48692    0.55854   1.00
H2       0.44332    0.53912    0.74745   1.00
H2       0.38802    0.57323    0.74115   1.00
C2       0.55473    0.42647    0.71366   1.00
C3       0.48388    0.40199    0.71315   1.00
O2       0.44367    0.36868    0.72971   1.00
C3       0.59608    0.47237    0.69835   1.00
H1       0.65023    0.49067    0.69802   1.00
C3a      0.45647    0.42495    0.69788   1.00
H1       0.40275    0.40877    0.69837   1.00
C3b      0.56899    0.49679    0.68358   1.00
C4       0.49871    0.47323    0.68327   1.00
O_3      0.49831    0.59753    0.68933   1.00
C5       0.40760    0.29764    0.72633   1.00
H2       0.37409    0.28433    0.71269   1.00
C5       0.36359    0.26467    0.74513   1.00
H2       0.44330    0.27772    0.72417   1.00
H2       0.31727    0.26978    0.74409   1.00
H2       0.39292    0.29516    0.75855   1.00
C5       0.34353    0.18923    0.74774   1.00
H2       0.31914    0.16071    0.73360   1.00
H2       0.30701    0.16553    0.76054   1.00
H2       0.38891    0.18395    0.75139   1.00
C5       0.48323    0.61803    0.72362   1.00
H2       0.48957    0.66943    0.72090   1.00
H2       0.53537    0.62506    0.72512   1.00
C5       0.44196    0.58607    0.74310   1.00
H2       0.46410    0.62271    0.75589   1.00
C5       0.29018    -0.31899   0.17439   1.00
H2       0.25217    -0.32019   0.16351   1.00
H2       0.27087    -0.31707   0.18973   1.00
C5       0.29488    -0.38449   0.17197   1.00
H2       0.25271    -0.42788   0.18028   1.00
H2       0.34456    -0.37585   0.17795   1.00
O_3      0.58302    -0.00662   0.19197   1.00
C4       0.47124    -0.02723   0.16809   1.00
C3c      0.41866    -0.09365   0.17246   1.00
H1       0.39737    -0.10594   0.18758   1.00
C3d      0.49759    -0.01202   0.14822   1.00
C3       0.39344    -0.14529   0.15761   1.00
O2       0.33653    -0.20658   0.16230   1.00
C3       0.47349    -0.06365   0.13350   1.00
H1       0.49693    -0.05017   0.11868   1.00
C2       0.42086    -0.13127   0.13773   1.00
C5       0.64577    0.02975    0.18161   1.00
H2       0.68340    0.07590    0.19012   1.00
H2       0.63858    0.04624    0.16630   1.00
C5       0.67472    -0.01761   0.17918   1.00
H2       0.63631    -0.06459   0.17117   1.00
H2       0.68228    -0.03323   0.19455   1.00
C5       0.74209    0.01726    0.16737   1.00
H2       0.78053    0.06447    0.17521   1.00
H2       0.73415    0.03075    0.15177   1.00
H2       0.76323    -0.01760   0.16613   1.00
C5       0.52942    0.09600    0.13790   1.00
C5       0.35634    -0.25237   0.17000   1.00
H2       0.50183    0.10397    0.15060   1.00
H2       0.49488    0.07666    0.12447   1.00
H2       0.38644    -0.23162   0.18423   1.00
H2       0.38874    -0.26154   0.15908   1.00
H2       0.28969    -0.40048   0.15572   1.00
H2       0.56298    0.23418    0.14690   1.00
H2       0.53067    0.20815    0.12128   1.00
C2       0.55534    0.12995    0.21315   1.00
C3       0.49703    0.11815    0.20210   1.00
O2       0.47682    0.16641    0.20186   1.00
C3       0.58264    0.08666    0.20965   1.00
H1       0.62617    0.09322    0.21823   1.00
C3a      0.46869    0.06525    0.18760   1.00
H1       0.42646    0.05937    0.17845   1.00
C3b      0.55568    0.03551    0.19476   1.00
C4       0.49836    0.02452    0.18357   1.00
O_3      0.55282    0.05110    0.14353   1.00
C5       0.42102    0.14699    0.21505   1.00
H2       0.37665    0.09683    0.21053   1.00
C5       0.40105    0.20223    0.21366   1.00
H2       0.43519    0.14322    0.23099   1.00
H2       0.37014    0.19328    0.19967   1.00
H2       0.44885    0.25199    0.21155   1.00
C5       0.36172    0.20445    0.23246   1.00
H2       0.31716    0.15297    0.23527   1.00
H2       0.34315    0.24115    0.23017   1.00
H2       0.39505    0.22191    0.24622   1.00
C5       0.59163    0.16414    0.13253   1.00
H2       0.61231    0.15859    0.11777   1.00
H2       0.63171    0.17598    0.14417   1.00
C5       0.57474    0.22203    0.13154   1.00
H2       0.61922    0.26916    0.12554   1.00
C5       1.05936    0.37442    0.09552   1.00
H2       1.06326    0.41496    0.08520   1.00
H2       1.00524    0.33301    0.09490   1.00
C5       1.10678    0.34822    0.08789   1.00
H2       1.08207    0.31048    0.07544   1.00
H2       1.11916    0.32375    0.10056   1.00
O_3      1.02728    0.41361    0.19894   1.00
C4       1.02739    0.49973    0.16813   1.00
C3c      1.01940    0.46472    0.14984   1.00
H1       0.97276    0.41733    0.14700   1.00
C3d      1.08816    0.56189    0.17141   1.00
C3       1.07143    0.48950    0.13511   1.00
O2       1.05676    0.45700    0.11662   1.00
C3       1.14058    0.58603    0.15694   1.00
H1       1.18721    0.63268    0.16044   1.00
C2       1.13364    0.55089    0.13846   1.00
C5       1.07511    0.44966    0.21439   1.00
H2       1.05112    0.43872    0.22972   1.00
H2       1.10087    0.50581    0.21177   1.00
C5       1.12818    0.42732    0.21406   1.00
H2       1.15080    0.43648    0.19858   1.00
H2       1.10199    0.37132    0.21688   1.00
C5       1.18374    0.46602    0.23000   1.00
H2       1.16145    0.45749    0.24548   1.00
H2       1.21151    0.52173    0.22679   1.00
H2       1.22124    0.44794    0.22983   1.00
C5       1.07381    0.64004    0.18930   1.00
C5       1.07631    0.40667    0.11667   1.00
H2       1.01757    0.61139    0.18715   1.00
H2       1.09720    0.67856    0.17692   1.00
H2       1.04705    0.36737    0.12846   1.00
H2       1.13178    0.42829    0.12004   1.00
H2       1.15515    0.39068    0.08147   1.00
H2       0.99253    0.67420    0.21527   1.00
H2       1.05322    0.74588    0.20001   1.00
C2       0.87427    0.42314    0.21445   1.00
C3       0.87125    0.46328    0.19855   1.00
O2       0.83049    0.49232    0.20026   1.00
C3       0.92669    0.40642    0.21406   1.00
H1       0.92937    0.37433    0.22573   1.00
C3a      0.92102    0.48703    0.18309   1.00
H1       0.92029    0.52090    0.17166   1.00
C3b      0.97737    0.43192    0.19903   1.00
C4       0.97491    0.47269    0.18340   1.00
O_3      1.10064    0.59565    0.18978   1.00
C5       0.77005    0.45461    0.18894   1.00
H2       0.78139    0.45288    0.17254   1.00
C5       0.72841    0.49054    0.19133   1.00
H2       0.73990    0.40135    0.19472   1.00
H2       0.74966    0.53513    0.18088   1.00
H2       0.73692    0.51143    0.20703   1.00
C5       0.65168    0.44303    0.18728   1.00
H2       0.64450    0.41849    0.17219   1.00
H2       0.62409    0.47220    0.18748   1.00
H2       0.62771    0.40284    0.19924   1.00
C5       1.08982    0.67687    0.20960   1.00
H2       1.14545    0.71444    0.21018   1.00
H2       1.07913    0.63886    0.22184   1.00
C5       1.04764    0.71224    0.21304   1.00
H2       1.06564    0.74431    0.22692   1.00
C5       0.61155    0.65506    0.09060   1.00
H2       0.56603    0.61843    0.08179   1.00
H2       0.64828    0.63622    0.08952   1.00
C5       0.64224    0.72691    0.08106   1.00
H2       0.67476    0.73201    0.06776   1.00
H2       0.67364    0.76652    0.09248   1.00
O_3      0.60084    0.61684    0.19552   1.00
C4       0.50021    0.52768    0.16816   1.00
C3c      0.52993    0.54607    0.14882   1.00
H1       0.57312    0.53997    0.14515   1.00
C3d      0.44336    0.53511    0.17253   1.00
C3       0.50531    0.57337    0.13406   1.00
O2       0.53152    0.58233    0.11474   1.00
C3       0.41954    0.56349    0.15800   1.00
H1       0.37736    0.57047    0.16229   1.00
C2       0.44948    0.58305    0.13844   1.00
C5       0.57389    0.63857    0.21127   1.00
H2       0.58756    0.62816    0.22658   1.00
H2       0.51717    0.61288    0.21027   1.00
C5       0.60364    0.71505    0.20902   1.00
H2       0.59162    0.72562    0.19352   1.00
H2       0.66021    0.74021    0.21024   1.00
C5       0.57500    0.74263    0.22519   1.00
H2       0.58641    0.73183    0.24072   1.00
H2       0.51879    0.71927    0.22355   1.00
H2       0.59846    0.79881    0.22359   1.00
C5       0.36551    0.45313    0.19355   1.00
C5       0.58675    0.64955    0.11250   1.00
H2       0.38809    0.41977    0.19148   1.00
H2       0.32378    0.43826    0.18223   1.00
H2       0.62838    0.65876    0.12333   1.00
H2       0.57186    0.68897    0.11553   1.00
H2       0.60137    0.73654    0.07530   1.00
H2       0.32844    0.34388    0.22231   1.00
H2       0.25544    0.33669    0.20862   1.00
C2       0.57750    0.45165    0.21442   1.00
C3       0.52971    0.40638    0.20018   1.00
O2       0.49487    0.33709    0.20381   1.00
C3       0.60126    0.52222    0.21233   1.00
H1       0.63915    0.55836    0.22266   1.00
C3a      0.50565    0.43203    0.18470   1.00
H1       0.46621    0.39636    0.17464   1.00
C3b      0.57561    0.54733    0.19732   1.00
C4       0.52733    0.50217    0.18337   1.00
O_3      0.41551    0.52264    0.19181   1.00
C5       0.52342    0.30489    0.19236   1.00
H2       0.52116    0.31338    0.17576   1.00
C5       0.48145    0.22848    0.19694   1.00
H2       0.57761    0.32425    0.19671   1.00
H2       0.43373    0.20634    0.18781   1.00
H2       0.46576    0.22293    0.21316   1.00
C5       0.52073    0.19044    0.19268   1.00
H2       0.54062    0.20096    0.17690   1.00
H2       0.48684    0.13442    0.19454   1.00
H2       0.56400    0.20611    0.20354   1.00
C5       0.33551    0.44212    0.21480   1.00
H2       0.30297    0.46608    0.21566   1.00
H2       0.37818    0.46984    0.22574   1.00
C5       0.29441    0.36600    0.22042   1.00
H2       0.26753    0.35954    0.23506   1.00
C5       0.34570    0.63946    0.65841   1.00
H2       0.34178    0.59829    0.66845   1.00
H2       0.34623    0.62228    0.64266   1.00
C5       0.28300    0.64848    0.66169   1.00
H2       0.23826    0.60959    0.65298   1.00
H2       0.29490    0.70025    0.65671   1.00
O_3      0.66733    0.92289    0.64361   1.00
C4       0.63939    0.80452    0.66524   1.00
C3c      0.57173    0.75578    0.66050   1.00
H1       0.55845    0.73751    0.64510   1.00
C3d      0.65582    0.82692    0.68546   1.00
C3       0.52017    0.73061    0.67538   1.00
O2       0.45713    0.67709    0.67017   1.00
C3       0.60435    0.80294    0.70023   1.00
H1       0.61893    0.82339    0.71538   1.00
C2       0.53553    0.75419    0.69565   1.00
C5       0.70677    0.98313    0.65489   1.00
H2       0.75392    1.02030    0.64668   1.00
H2       0.72206    0.97168    0.66981   1.00
C5       0.66327    1.01588    0.65850   1.00
H2       0.61527    0.97807    0.66620   1.00
H2       0.64884    1.02767    0.64351   1.00
C5       0.70159    1.08073    0.67135   1.00
H2       0.74981    1.11853    0.66382   1.00
H2       0.71393    1.06866    0.68659   1.00
H2       0.66956    1.10476    0.67345   1.00
C5       0.76200    0.85021    0.69520   1.00
C5       0.41453    0.70221    0.66345   1.00
H2       0.76775    0.82356    0.68183   1.00
H2       0.74086    0.81341    0.70807   1.00
H2       0.43671    0.73448    0.64967   1.00
H2       0.40797    0.73424    0.67516   1.00
H2       0.26717    0.64120    0.67799   1.00
H2       0.89742    0.87678    0.68533   1.00
H2       0.86994    0.84047    0.71050   1.00
C2       0.79686    0.88866    0.62026   1.00
C3       0.78129    0.82725    0.63016   1.00
O2       0.82628    0.80295    0.62940   1.00
C3       0.75715    0.91923    0.62487   1.00
H1       0.76662    0.96529    0.61717   1.00
C3a      0.72828    0.79903    0.64463   1.00
H1       0.71956    0.75415    0.65291   1.00
C3b      0.70593    0.89223    0.63973   1.00
C4       0.69120    0.83176    0.64978   1.00
O_3      0.72049    0.87857    0.69061   1.00
C5       0.80366    0.74922    0.61524   1.00
H2       0.75219    0.70613    0.61936   1.00
C5       0.85537    0.72446    0.61555   1.00
H2       0.80111    0.76710    0.59968   1.00
H2       0.84449    0.69057    0.62894   1.00
H2       0.90667    0.76987    0.61811   1.00
C5       0.85478    0.68724    0.59589   1.00
H2       0.80207    0.64542    0.59272   1.00
H2       0.88875    0.66506    0.59735   1.00
H2       0.87403    0.72299    0.58269   1.00
C5       0.83200    0.90859    0.70112   1.00
H2       0.82808    0.92755    0.71636   1.00
H2       0.84631    0.95128    0.69024   1.00
C5       0.88649    0.88688    0.70106   1.00
H2       0.93500    0.92834    0.70746   1.00
C5       0.42881    0.60548    0.67387   1.00
H2       0.40772    0.64041    0.67446   1.00
H2       0.44459    0.60613    0.65788   1.00
C5       0.49117    0.63220    0.68818   1.00
H2       0.53774    0.67333    0.68072   1.00
H2       0.50027    0.58984    0.69243   1.00
O_3      0.19914    0.25728    0.66655   1.00
C4       0.16530    0.36109    0.66509   1.00
C3c      0.22724    0.42226    0.66250   1.00
H1       0.25641    0.43052    0.64876   1.00
C3d      0.12760    0.35174    0.68299   1.00
C3       0.25297    0.47309    0.67760   1.00
O2       0.30945    0.53479    0.67297   1.00
C3       0.15371    0.40170    0.69821   1.00
H1       0.12417    0.39123    0.71198   1.00
C2       0.21662    0.46353    0.69593   1.00
C5       0.16055    0.20661    0.68107   1.00
H2       0.13377    0.15449    0.67432   1.00
H2       0.12159    0.21622    0.68831   1.00
C5       0.20949    0.20894    0.69723   1.00
H2       0.23765    0.26155    0.70357   1.00
H2       0.24775    0.19865    0.68986   1.00
C5       0.17125    0.15685    0.71407   1.00
H2       0.14264    0.10424    0.70782   1.00
H2       0.13472    0.16848    0.72190   1.00
H2       0.20801    0.15825    0.72551   1.00
C5       0.01231    0.29153    0.67849   1.00
C5       0.36921    0.53492    0.67926   1.00
H2       0.01687    0.29728    0.66172   1.00
H2       0.00628    0.33381    0.68491   1.00
H2       0.37412    0.49447    0.67107   1.00
H2       0.36921    0.52502    0.69589   1.00
H2       0.48343    0.65508    0.70224   1.00
H2       -0.10566   0.20237    0.65439   1.00
H2       -0.12158   0.25535    0.67171   1.00
C2       0.08817    0.20146    0.62077   1.00
C3       0.07351    0.25498    0.61912   1.00
O2       0.02160    0.24833    0.60665   1.00
C3       0.13129    0.20399    0.63669   1.00
H1       0.14492    0.16474    0.63805   1.00
C3a      0.10040    0.30821    0.63353   1.00
H1       0.08555    0.34672    0.63274   1.00
C3b      0.15617    0.25583    0.65136   1.00
C4       0.14069    0.30843    0.64989   1.00
O_3      0.06898    0.29042    0.68695   1.00
C5       0.04865    0.28479    0.58845   1.00
H2       0.08368    0.34019    0.59146   1.00
C5       -0.01172   0.27587    0.57568   1.00
H2       0.07722    0.26446    0.57995   1.00
H2       -0.02813   0.31164    0.58145   1.00
H2       -0.05492   0.22338    0.57848   1.00
C5       0.00481    0.28746    0.55284   1.00
H2       0.05128    0.33793    0.55048   1.00
H2       -0.03820   0.28622    0.54429   1.00
H2       0.01292    0.24655    0.54625   1.00
C5       -0.05091   0.22378    0.68354   1.00
H2       -0.06204   0.22331    0.70001   1.00
H2       -0.03890   0.18230    0.68094   1.00
C5       -0.11277   0.21131    0.67063   1.00
H2       -0.15938   0.16520    0.67616   1.00
C5       0.18777    0.57580    0.67186   1.00
H2       0.24396    0.59893    0.67301   1.00
H2       0.17498    0.56171    0.65566   1.00
C5       0.15258    0.51155    0.68545   1.00
H2       0.15015    0.46681    0.67763   1.00
H2       0.09989    0.49973    0.68926   1.00
O_3      0.05649    0.79510    0.66530   1.00
C4       0.19578    0.83473    0.66510   1.00
C3c      0.19826    0.77463    0.66207   1.00
H1       0.17994    0.74692    0.64797   1.00
C3d      0.22081    0.87059    0.68346   1.00
C3       0.22334    0.74883    0.67715   1.00
O2       0.23192    0.69458    0.67216   1.00
C3       0.24460    0.84435    0.69866   1.00
H1       0.26103    0.87233    0.71276   1.00
C2       0.24678    0.78324    0.69593   1.00
C5       0.04055    0.83035    0.67999   1.00
H2       0.01417    0.85611    0.67326   1.00
H2       0.08746    0.86970    0.68786   1.00
C5       -0.00672   0.77842    0.69545   1.00
H2       0.01887    0.75133    0.70177   1.00
H2       -0.05364   0.73976    0.68746   1.00
C5       -0.02473   0.81296    0.71245   1.00
H2       -0.04988   0.84051    0.70623   1.00
H2       0.02182    0.84986    0.72089   1.00
H2       -0.06050   0.77403    0.72335   1.00
C5       0.27215    0.98614    0.68019   1.00
C5       0.17306    0.63273    0.67759   1.00
H2       0.27560    0.98384    0.66341   1.00
H2       0.32049    0.99349    0.68700   1.00
H2       0.12791    0.62684    0.66903   1.00
H2       0.16094    0.63019    0.69413   1.00
H2       0.18184    0.51878    0.69978   1.00
H2       0.29887    1.10552    0.65716   1.00
H2       0.36647    1.12212    0.67508   1.00
C2       0.11307    0.91158    0.62076   1.00
C3       0.18228    0.92929    0.61972   1.00
O2       0.22758    0.98358    0.60796   1.00
C3       0.07172    0.86565    0.63606   1.00
H1       0.01814    0.84972    0.63694   1.00
C3a      0.20877    0.90251    0.63412   1.00
H1       0.26270    0.91959    0.63383   1.00
C3b      0.09871    0.84084    0.65074   1.00
C4       0.16775    0.85930    0.64989   1.00
O_3      0.21476    0.92712    0.68781   1.00
C5       0.24068    0.95991    0.58966   1.00
H2       0.26281    0.92634    0.59256   1.00
C5       0.29194    1.02278    0.57770   1.00
H2       0.19308    0.93083    0.58060   1.00
H2       0.34380    1.04051    0.58397   1.00
H2       0.28004    1.06412    0.58073   1.00
C5       0.29041    1.00927    0.55473   1.00
H2       0.29701    0.96445    0.55207   1.00
H2       0.33210    1.05424    0.54680   1.00
H2       0.24148    0.99989    0.54772   1.00
C5       0.26389    1.04694    0.68565   1.00
H2       0.27227    1.05624    0.70226   1.00
H2       0.21009    1.03305    0.68257   1.00
C5       0.31299    1.11118    0.67356   1.00
H2       0.31060    1.15596    0.67941   1.00
