data_IRMOF10_interpen_symm_ligand2cp_label_e.

_audit_creation_method             'generated by an auxiliary program of Tobunporous'

_symmetry_space_group_name_H-M     'P 1'
_symmetry_Int_Tables_number        1
_symmetry_cell_setting             triclinic

_cell_length_a                    22.6523
_cell_length_b                    22.6523
_cell_length_c                    65.9502
_cell_angle_alpha                 90.0000
_cell_angle_beta                  90.0000
_cell_angle_gamma                 120.0000

loop_
_atom_site_label
_atom_site_fract_x
_atom_site_fract_y
_atom_site_fract_z
_atom_site_occupancy
O1       0.00000    0.00000    0.57470   1.00
Zn      0.00000    0.00000    0.54560   1.00
Zn      0.94843    0.04287    0.58357   1.00
Zn      0.09443    0.05157    0.58357   1.00
Zn      0.95713    0.90557    0.58357   1.00
O2       0.93860    0.02610    0.53560   1.00
O2       0.08750    0.06140    0.53560   1.00
O2       0.97390    0.91250    0.53560   1.00
O2       0.91300    0.07160    0.56150   1.00
O2       0.00463    0.12027    0.60077   1.00
O2       0.87413    0.98077    0.60037   1.00
O2       0.15860    0.08700    0.56150   1.00
O2       0.10663    0.12587    0.60037   1.00
O2       0.11563    0.99537    0.60077   1.00
O2       0.92840    0.84140    0.56150   1.00
O2       0.87973    0.88437    0.60077   1.00
O2       0.01923    0.89337    0.60037   1.00
C1       0.91390    0.06020    0.54330   1.00
C1       0.14630    0.08610    0.54330   1.00
C1       0.93980    0.85370    0.54330   1.00
C1       0.06663    0.14397    0.60637   1.00
C1       0.85603    0.92267    0.60637   1.00
C1       0.07733    0.93337    0.60637   1.00
O1       0.00000    0.00000    0.92530   1.00
Zn      0.00000    0.00000    0.95440   1.00
Zn      0.04287    0.94843    0.91643   1.00
Zn      0.05157    0.09443    0.91643   1.00
Zn      0.90557    0.95713    0.91643   1.00
O2       0.02610    0.93860    0.96440   1.00
O2       0.06140    0.08750    0.96440   1.00
O2       0.91250    0.97390    0.96440   1.00
O2       0.07160    0.91300    0.93850   1.00
O2       0.12027    0.00463    0.89923   1.00
O2       0.98077    0.87413    0.89963   1.00
O2       0.08700    0.15860    0.93850   1.00
O2       0.12587    0.10663    0.89963   1.00
O2       0.99537    0.11563    0.89923   1.00
O2       0.84140    0.92840    0.93850   1.00
O2       0.88437    0.87973    0.89923   1.00
O2       0.89337    0.01923    0.89963   1.00
C1       0.06020    0.91390    0.95670   1.00
C1       0.08610    0.14630    0.95670   1.00
C1       0.85370    0.93980    0.95670   1.00
C1       0.14397    0.06663    0.89363   1.00
C1       0.92267    0.85603    0.89363   1.00
C1       0.93337    0.07733    0.89363   1.00
O1       0.00000    0.00000    0.42530   1.00
Zn      0.00000    0.00000    0.45440   1.00
Zn      0.05157    0.95713    0.41643   1.00
Zn      0.90557    0.94843    0.41643   1.00
Zn      0.04287    0.09443    0.41643   1.00
O2       0.06140    0.97390    0.46440   1.00
O2       0.91250    0.93860    0.46440   1.00
O2       0.02610    0.08750    0.46440   1.00
O2       0.08700    0.92840    0.43850   1.00
O2       0.99537    0.87973    0.39923   1.00
O2       0.12587    0.01923    0.39963   1.00
O2       0.84140    0.91300    0.43850   1.00
O2       0.89337    0.87413    0.39963   1.00
O2       0.88437    0.00463    0.39923   1.00
O2       0.07160    0.15860    0.43850   1.00
O2       0.12027    0.11563    0.39923   1.00
O2       0.98077    0.10663    0.39963   1.00
C1       0.08610    0.93980    0.45670   1.00
C1       0.85370    0.91390    0.45670   1.00
C1       0.06020    0.14630    0.45670   1.00
C1       0.93337    0.85603    0.39363   1.00
C1       0.14397    0.07733    0.39363   1.00
C1       0.92267    0.06663    0.39363   1.00
O1       0.00000    0.00000    0.07470   1.00
Zn      0.00000    0.00000    0.04560   1.00
Zn      0.95713    0.05157    0.08357   1.00
Zn      0.94843    0.90557    0.08357   1.00
Zn      0.09443    0.04287    0.08357   1.00
O2       0.97390    0.06140    0.03560   1.00
O2       0.93860    0.91250    0.03560   1.00
O2       0.08750    0.02610    0.03560   1.00
O2       0.92840    0.08700    0.06150   1.00
O2       0.87973    0.99537    0.10077   1.00
O2       0.01923    0.12587    0.10037   1.00
O2       0.91300    0.84140    0.06150   1.00
O2       0.87413    0.89337    0.10037   1.00
O2       0.00463    0.88437    0.10077   1.00
O2       0.15860    0.07160    0.06150   1.00
O2       0.11563    0.12027    0.10077   1.00
O2       0.10663    0.98077    0.10037   1.00
C1       0.93980    0.08610    0.04330   1.00
C1       0.91390    0.85370    0.04330   1.00
C1       0.14630    0.06020    0.04330   1.00
C1       0.85603    0.93337    0.10637   1.00
C1       0.07733    0.14397    0.10637   1.00
C1       0.06663    0.92267    0.10637   1.00
O1       0.66667    0.33333    0.90803   1.00
Zn      0.66667    0.33333    0.87893   1.00
Zn      0.61510    0.37620    0.91690   1.00
Zn      0.76110    0.38490    0.91690   1.00
Zn      0.62380    0.23890    0.91690   1.00
O2       0.60527    0.35943    0.86893   1.00
O2       0.75417    0.39473    0.86893   1.00
O2       0.64057    0.24583    0.86893   1.00
O2       0.57967    0.40493    0.89483   1.00
O2       0.67130    0.45360    0.93410   1.00
O2       0.54080    0.31410    0.93370   1.00
O2       0.82527    0.42033    0.89483   1.00
O2       0.77330    0.45920    0.93370   1.00
O2       0.78230    0.32870    0.93410   1.00
O2       0.59507    0.17473    0.89483   1.00
O2       0.54640    0.21770    0.93410   1.00
O2       0.68590    0.22670    0.93370   1.00
C1       0.58057    0.39353    0.87663   1.00
C1       0.81297    0.41943    0.87663   1.00
C1       0.60647    0.18703    0.87663   1.00
C1       0.73330    0.47730    0.93970   1.00
C1       0.52270    0.25600    0.93970   1.00
C1       0.74400    0.26670    0.93970   1.00
O1       0.66667    0.33333    0.25863   1.00
Zn      0.66667    0.33333    0.28773   1.00
Zn      0.70953    0.28177    0.24977   1.00
Zn      0.71823    0.42777    0.24977   1.00
Zn      0.57223    0.29047    0.24977   1.00
O2       0.69277    0.27193    0.29773   1.00
O2       0.72807    0.42083    0.29773   1.00
O2       0.57917    0.30723    0.29773   1.00
O2       0.73827    0.24633    0.27183   1.00
O2       0.78693    0.33797    0.23257   1.00
O2       0.64743    0.20747    0.23297   1.00
O2       0.75367    0.49193    0.27183   1.00
O2       0.79253    0.43997    0.23297   1.00
O2       0.66203    0.44897    0.23257   1.00
O2       0.50807    0.26173    0.27183   1.00
O2       0.55103    0.21307    0.23257   1.00
O2       0.56003    0.35257    0.23297   1.00
C1       0.72687    0.24723    0.29003   1.00
C1       0.75277    0.47963    0.29003   1.00
C1       0.52037    0.27313    0.29003   1.00
C1       0.81063    0.39997    0.22697   1.00
C1       0.58933    0.18937    0.22697   1.00
C1       0.60003    0.41067    0.22697   1.00
O1       0.66667    0.33333    0.75863   1.00
Zn      0.66667    0.33333    0.78773   1.00
Zn      0.71823    0.29047    0.74977   1.00
Zn      0.57223    0.28177    0.74977   1.00
Zn      0.70953    0.42777    0.74977   1.00
O2       0.72807    0.30723    0.79773   1.00
O2       0.57917    0.27193    0.79773   1.00
O2       0.69277    0.42083    0.79773   1.00
O2       0.75367    0.26173    0.77183   1.00
O2       0.66203    0.21307    0.73257   1.00
O2       0.79253    0.35257    0.73297   1.00
O2       0.50807    0.24633    0.77183   1.00
O2       0.56003    0.20747    0.73297   1.00
O2       0.55103    0.33797    0.73257   1.00
O2       0.73827    0.49193    0.77183   1.00
O2       0.78693    0.44897    0.73257   1.00
O2       0.64743    0.43997    0.73297   1.00
C1       0.75277    0.27313    0.79003   1.00
C1       0.52037    0.24723    0.79003   1.00
C1       0.72687    0.47963    0.79003   1.00
C1       0.60003    0.18937    0.72697   1.00
C1       0.81063    0.41067    0.72697   1.00
C1       0.58933    0.39997    0.72697   1.00
O1       0.66667    0.33333    0.40803   1.00
Zn      0.66667    0.33333    0.37893   1.00
Zn      0.62380    0.38490    0.41690   1.00
Zn      0.61510    0.23890    0.41690   1.00
Zn      0.76110    0.37620    0.41690   1.00
O2       0.64057    0.39473    0.36893   1.00
O2       0.60527    0.24583    0.36893   1.00
O2       0.75417    0.35943    0.36893   1.00
O2       0.59507    0.42033    0.39483   1.00
O2       0.54640    0.32870    0.43410   1.00
O2       0.68590    0.45920    0.43370   1.00
O2       0.57967    0.17473    0.39483   1.00
O2       0.54080    0.22670    0.43370   1.00
O2       0.67130    0.21770    0.43410   1.00
O2       0.82527    0.40493    0.39483   1.00
O2       0.78230    0.45360    0.43410   1.00
O2       0.77330    0.31410    0.43370   1.00
C1       0.60647    0.41943    0.37663   1.00
C1       0.58057    0.18703    0.37663   1.00
C1       0.81297    0.39353    0.37663   1.00
C1       0.52270    0.26670    0.43970   1.00
C1       0.74400    0.47730    0.43970   1.00
C1       0.73330    0.25600    0.43970   1.00
O1       0.33333    0.66667    0.24137   1.00
Zn      0.33333    0.66667    0.21227   1.00
Zn      0.28177    0.70953    0.25023   1.00
Zn      0.42777    0.71823    0.25023   1.00
Zn      0.29047    0.57223    0.25023   1.00
O2       0.27193    0.69277    0.20227   1.00
O2       0.42083    0.72807    0.20227   1.00
O2       0.30723    0.57917    0.20227   1.00
O2       0.24633    0.73827    0.22817   1.00
O2       0.33797    0.78693    0.26743   1.00
O2       0.20747    0.64743    0.26703   1.00
O2       0.49193    0.75367    0.22817   1.00
O2       0.43997    0.79253    0.26703   1.00
O2       0.44897    0.66203    0.26743   1.00
O2       0.26173    0.50807    0.22817   1.00
O2       0.21307    0.55103    0.26743   1.00
O2       0.35257    0.56003    0.26703   1.00
C1       0.24723    0.72687    0.20997   1.00
C1       0.47963    0.75277    0.20997   1.00
C1       0.27313    0.52037    0.20997   1.00
C1       0.39997    0.81063    0.27303   1.00
C1       0.18937    0.58933    0.27303   1.00
C1       0.41067    0.60003    0.27303   1.00
O1       0.33333    0.66667    0.59197   1.00
Zn      0.33333    0.66667    0.62107   1.00
Zn      0.37620    0.61510    0.58310   1.00
Zn      0.38490    0.76110    0.58310   1.00
Zn      0.23890    0.62380    0.58310   1.00
O2       0.35943    0.60527    0.63107   1.00
O2       0.39473    0.75417    0.63107   1.00
O2       0.24583    0.64057    0.63107   1.00
O2       0.40493    0.57967    0.60517   1.00
O2       0.45360    0.67130    0.56590   1.00
O2       0.31410    0.54080    0.56630   1.00
O2       0.42033    0.82527    0.60517   1.00
O2       0.45920    0.77330    0.56630   1.00
O2       0.32870    0.78230    0.56590   1.00
O2       0.17473    0.59507    0.60517   1.00
O2       0.21770    0.54640    0.56590   1.00
O2       0.22670    0.68590    0.56630   1.00
C1       0.39353    0.58057    0.62337   1.00
C1       0.41943    0.81297    0.62337   1.00
C1       0.18703    0.60647    0.62337   1.00
C1       0.47730    0.73330    0.56030   1.00
C1       0.25600    0.52270    0.56030   1.00
C1       0.26670    0.74400    0.56030   1.00
O1       0.33333    0.66667    0.09197   1.00
Zn      0.33333    0.66667    0.12107   1.00
Zn      0.38490    0.62380    0.08310   1.00
Zn      0.23890    0.61510    0.08310   1.00
Zn      0.37620    0.76110    0.08310   1.00
O2       0.39473    0.64057    0.13107   1.00
O2       0.24583    0.60527    0.13107   1.00
O2       0.35943    0.75417    0.13107   1.00
O2       0.42033    0.59507    0.10517   1.00
O2       0.32870    0.54640    0.06590   1.00
O2       0.45920    0.68590    0.06630   1.00
O2       0.17473    0.57967    0.10517   1.00
O2       0.22670    0.54080    0.06630   1.00
O2       0.21770    0.67130    0.06590   1.00
O2       0.40493    0.82527    0.10517   1.00
O2       0.45360    0.78230    0.06590   1.00
O2       0.31410    0.77330    0.06630   1.00
C1       0.41943    0.60647    0.12337   1.00
C1       0.18703    0.58057    0.12337   1.00
C1       0.39353    0.81297    0.12337   1.00
C1       0.26670    0.52270    0.06030   1.00
C1       0.47730    0.74400    0.06030   1.00
C1       0.25600    0.73330    0.06030   1.00
O1       0.33333    0.66667    0.74137   1.00
Zn      0.33333    0.66667    0.71227   1.00
Zn      0.29047    0.71823    0.75023   1.00
Zn      0.28177    0.57223    0.75023   1.00
Zn      0.42777    0.70953    0.75023   1.00
O2       0.30723    0.72807    0.70227   1.00
O2       0.27193    0.57917    0.70227   1.00
O2       0.42083    0.69277    0.70227   1.00
O2       0.26173    0.75367    0.72817   1.00
O2       0.21307    0.66203    0.76743   1.00
O2       0.35257    0.79253    0.76703   1.00
O2       0.24633    0.50807    0.72817   1.00
O2       0.20747    0.56003    0.76703   1.00
O2       0.33797    0.55103    0.76743   1.00
O2       0.49193    0.73827    0.72817   1.00
O2       0.44897    0.78693    0.76743   1.00
O2       0.43997    0.64743    0.76703   1.00
C1       0.27313    0.75277    0.70997   1.00
C1       0.24723    0.52037    0.70997   1.00
C1       0.47963    0.72687    0.70997   1.00
C1       0.18937    0.60003    0.77303   1.00
C1       0.41067    0.81063    0.77303   1.00
C1       0.39997    0.58933    0.77303   1.00
C2       0.77075    0.52466    0.45849   1.00
C3       0.73278    0.53682    0.47130   1.00
H1       0.68580    0.50795    0.47120   1.00
C3       0.83943    0.56638    0.45928   1.00
H1       0.86703    0.55817    0.45066   1.00
C3a      0.76032    0.59039    0.48477   1.00
H1       0.73381    0.59881    0.49379   1.00
C3b      0.86935    0.62065    0.47258   1.00
H1       0.91646    0.64842    0.47323   1.00
C6       0.82982    0.63252    0.48580   1.00
C6       0.86158    0.68998    0.50038   1.00
C3c      0.87774    0.67977    0.51985   1.00
H1       0.87362    0.63811    0.52336   1.00
C3d      0.87291    0.75326    0.49393   1.00
H1       0.86209    0.76175    0.48106   1.00
C3       0.90433    0.73382    0.53336   1.00
H1       0.91626    0.72745    0.54635   1.00
C3       0.89914    0.80637    0.50905   1.00
H1       0.90631    0.84912    0.50543   1.00
C2       0.91370    0.79640    0.52810   1.00
C2       0.47534    0.24609    0.45849   1.00
C3       0.46318    0.19596    0.47130   1.00
H1       0.49205    0.17785    0.47120   1.00
C3       0.43362    0.27305    0.45928   1.00
H1       0.44183    0.30886    0.45066   1.00
C3a      0.40961    0.16993    0.48477   1.00
H1       0.40119    0.13501    0.49379   1.00
C3b      0.37935    0.24870    0.47258   1.00
H1       0.35158    0.26804    0.47323   1.00
C6       0.36748    0.19730    0.48580   1.00
C6       0.31002    0.17160    0.50038   1.00
C3c      0.32023    0.19797    0.51985   1.00
H1       0.36189    0.23551    0.52336   1.00
C3d      0.24674    0.11965    0.49393   1.00
H1       0.23825    0.10034    0.48106   1.00
C3       0.26618    0.17051    0.53336   1.00
H1       0.27255    0.18881    0.54635   1.00
C3       0.19363    0.09277    0.50905   1.00
H1       0.15088    0.05719    0.50543   1.00
C2       0.20360    0.11730    0.52810   1.00
C2       0.75391    0.22925    0.45849   1.00
C3       0.80404    0.26722    0.47130   1.00
H1       0.82215    0.31420    0.47120   1.00
C3       0.72695    0.16057    0.45928   1.00
H1       0.69114    0.13297    0.45066   1.00
C3a      0.83007    0.23968    0.48477   1.00
H1       0.86499    0.26619    0.49379   1.00
C3b      0.75130    0.13065    0.47258   1.00
H1       0.73196    0.08354    0.47323   1.00
C6       0.80270    0.17018    0.48580   1.00
C6       0.82840    0.13842    0.50038   1.00
C3c      0.80203    0.12226    0.51985   1.00
H1       0.76449    0.12638    0.52336   1.00
C3d      0.88035    0.12709    0.49393   1.00
H1       0.89966    0.13791    0.48106   1.00
C3       0.82949    0.09567    0.53336   1.00
H1       0.81119    0.08374    0.54635   1.00
C3       0.90723    0.10086    0.50905   1.00
H1       0.94281    0.09369    0.50543   1.00
C2       0.88270    0.08630    0.52810   1.00
C2       0.52466    0.77075    0.04151   1.00
C3       0.53682    0.73278    0.02870   1.00
H1       0.50795    0.68580    0.02880   1.00
C3       0.56638    0.83943    0.04072   1.00
H1       0.55817    0.86703    0.04934   1.00
C3a      0.59039    0.76032    0.01523   1.00
H1       0.59881    0.73381    0.00621   1.00
C3b      0.62065    0.86935    0.02742   1.00
H1       0.64842    0.91646    0.02677   1.00
C6       0.63252    0.82982    0.01420   1.00
C6       0.68998    0.86158    0.99962   1.00
C3c      0.67977    0.87774    0.98015   1.00
H1       0.63811    0.87362    0.97664   1.00
C3d      0.75326    0.87291    0.00607   1.00
H1       0.76175    0.86209    0.01894   1.00
C3       0.73382    0.90433    0.96664   1.00
H1       0.72745    0.91626    0.95365   1.00
C3       0.80637    0.89914    0.99095   1.00
H1       0.84912    0.90631    0.99457   1.00
C2       0.79640    0.91370    0.97190   1.00
C2       0.24609    0.47534    0.04151   1.00
C3       0.19596    0.46318    0.02870   1.00
H1       0.17785    0.49205    0.02880   1.00
C3       0.27305    0.43362    0.04072   1.00
H1       0.30886    0.44183    0.04934   1.00
C3a      0.16993    0.40961    0.01523   1.00
H1       0.13501    0.40119    0.00621   1.00
C3b      0.24870    0.37935    0.02742   1.00
H1       0.26804    0.35158    0.02677   1.00
C6       0.19730    0.36748    0.01420   1.00
C6       0.17160    0.31002    0.99962   1.00
C3c      0.19797    0.32023    0.98015   1.00
H1       0.23551    0.36189    0.97664   1.00
C3d      0.11965    0.24674    0.00607   1.00
H1       0.10034    0.23825    0.01894   1.00
C3       0.17051    0.26618    0.96664   1.00
H1       0.18881    0.27255    0.95365   1.00
C3       0.09277    0.19363    0.99095   1.00
H1       0.05719    0.15088    0.99457   1.00
C2       0.11730    0.20360    0.97190   1.00
C2       0.22925    0.75391    0.04151   1.00
C3       0.26722    0.80404    0.02870   1.00
H1       0.31420    0.82215    0.02880   1.00
C3       0.16057    0.72695    0.04072   1.00
H1       0.13297    0.69114    0.04934   1.00
C3a      0.23968    0.83007    0.01523   1.00
H1       0.26619    0.86499    0.00621   1.00
C3b      0.13065    0.75130    0.02742   1.00
H1       0.08354    0.73196    0.02677   1.00
C6       0.17018    0.80270    0.01420   1.00
C6       0.13842    0.82840    0.99962   1.00
C3c      0.12226    0.80203    0.98015   1.00
H1       0.12638    0.76449    0.97664   1.00
C3d      0.12709    0.88035    0.00607   1.00
H1       0.13791    0.89966    0.01894   1.00
C3       0.09567    0.82949    0.96664   1.00
H1       0.08374    0.81119    0.95365   1.00
C3       0.10086    0.90723    0.99095   1.00
H1       0.09369    0.94281    0.99457   1.00
C2       0.08630    0.88270    0.97190   1.00
C2       0.22925    0.47534    0.54151   1.00
C3       0.26722    0.46318    0.52870   1.00
H1       0.31420    0.49205    0.52880   1.00
C3       0.16057    0.43362    0.54072   1.00
H1       0.13297    0.44183    0.54934   1.00
C3a      0.23968    0.40961    0.51523   1.00
H1       0.26619    0.40119    0.50621   1.00
C3b      0.13065    0.37935    0.52742   1.00
H1       0.08354    0.35158    0.52677   1.00
C6       0.17018    0.36748    0.51420   1.00
C6       0.13842    0.31002    0.49962   1.00
C3c      0.12226    0.32023    0.48015   1.00
H1       0.12638    0.36189    0.47664   1.00
C3d      0.12709    0.24674    0.50607   1.00
H1       0.13791    0.23825    0.51894   1.00
C3       0.09567    0.26618    0.46664   1.00
H1       0.08374    0.27255    0.45365   1.00
C3       0.10086    0.19363    0.49095   1.00
H1       0.09369    0.15088    0.49457   1.00
C2       0.08630    0.20360    0.47190   1.00
C2       0.52466    0.75391    0.54151   1.00
C3       0.53682    0.80404    0.52870   1.00
H1       0.50795    0.82215    0.52880   1.00
C3       0.56638    0.72695    0.54072   1.00
H1       0.55817    0.69114    0.54934   1.00
C3a      0.59039    0.83007    0.51523   1.00
H1       0.59881    0.86499    0.50621   1.00
C3b      0.62065    0.75130    0.52742   1.00
H1       0.64842    0.73196    0.52677   1.00
C6       0.63252    0.80270    0.51420   1.00
C6       0.68998    0.82840    0.49962   1.00
C3c      0.67977    0.80203    0.48015   1.00
H1       0.63811    0.76449    0.47664   1.00
C3d      0.75326    0.88035    0.50607   1.00
H1       0.76175    0.89966    0.51894   1.00
C3       0.73382    0.82949    0.46664   1.00
H1       0.72745    0.81119    0.45365   1.00
C3       0.80637    0.90723    0.49095   1.00
H1       0.84912    0.94281    0.49457   1.00
C2       0.79640    0.88270    0.47190   1.00
C2       0.24609    0.77075    0.54151   1.00
C3       0.19596    0.73278    0.52870   1.00
H1       0.17785    0.68580    0.52880   1.00
C3       0.27305    0.83943    0.54072   1.00
H1       0.30886    0.86703    0.54934   1.00
C3a      0.16993    0.76032    0.51523   1.00
H1       0.13501    0.73381    0.50621   1.00
C3b      0.24870    0.86935    0.52742   1.00
H1       0.26804    0.91646    0.52677   1.00
C6       0.19730    0.82982    0.51420   1.00
C6       0.17160    0.86158    0.49962   1.00
C3c      0.19797    0.87774    0.48015   1.00
H1       0.23551    0.87362    0.47664   1.00
C3d      0.11965    0.87291    0.50607   1.00
H1       0.10034    0.86209    0.51894   1.00
C3       0.17051    0.90433    0.46664   1.00
H1       0.18881    0.91626    0.45365   1.00
C3       0.09277    0.89914    0.49095   1.00
H1       0.05719    0.90631    0.49457   1.00
C2       0.11730    0.91370    0.47190   1.00
C2       0.47534    0.22925    0.95849   1.00
C3       0.46318    0.26722    0.97130   1.00
H1       0.49205    0.31420    0.97120   1.00
C3       0.43362    0.16057    0.95928   1.00
H1       0.44183    0.13297    0.95066   1.00
C3a      0.40961    0.23968    0.98477   1.00
H1       0.40119    0.26619    0.99379   1.00
C3b      0.37935    0.13065    0.97258   1.00
H1       0.35158    0.08354    0.97323   1.00
C6       0.36748    0.17018    0.98580   1.00
C6       0.31002    0.13842    0.00038   1.00
C3c      0.32023    0.12226    0.01985   1.00
H1       0.36189    0.12638    0.02336   1.00
C3d      0.24674    0.12709    0.99393   1.00
H1       0.23825    0.13791    0.98106   1.00
C3       0.26618    0.09567    0.03336   1.00
H1       0.27255    0.08374    0.04635   1.00
C3       0.19363    0.10086    0.00905   1.00
H1       0.15088    0.09369    0.00543   1.00
C2       0.20360    0.08630    0.02810   1.00
C2       0.75391    0.52466    0.95849   1.00
C3       0.80404    0.53682    0.97130   1.00
H1       0.82215    0.50795    0.97120   1.00
C3       0.72695    0.56638    0.95928   1.00
H1       0.69114    0.55817    0.95066   1.00
C3a      0.83007    0.59039    0.98477   1.00
H1       0.86499    0.59881    0.99379   1.00
C3b      0.75130    0.62065    0.97258   1.00
H1       0.73196    0.64842    0.97323   1.00
C6       0.80270    0.63252    0.98580   1.00
C6       0.82840    0.68998    0.00038   1.00
C3c      0.80203    0.67977    0.01985   1.00
H1       0.76449    0.63811    0.02336   1.00
C3d      0.88035    0.75326    0.99393   1.00
H1       0.89966    0.76175    0.98106   1.00
C3       0.82949    0.73382    0.03336   1.00
H1       0.81119    0.72745    0.04635   1.00
C3       0.90723    0.80637    0.00905   1.00
H1       0.94281    0.84912    0.00543   1.00
C2       0.88270    0.79640    0.02810   1.00
C2       0.77075    0.24609    0.95849   1.00
C3       0.73278    0.19596    0.97130   1.00
H1       0.68580    0.17785    0.97120   1.00
C3       0.83943    0.27305    0.95928   1.00
H1       0.86703    0.30886    0.95066   1.00
C3a      0.76032    0.16993    0.98477   1.00
H1       0.73381    0.13501    0.99379   1.00
C3b      0.86935    0.24870    0.97258   1.00
H1       0.91646    0.26804    0.97323   1.00
C6       0.82982    0.19730    0.98580   1.00
C6       0.86158    0.17160    0.00038   1.00
C3c      0.87774    0.19797    0.01985   1.00
H1       0.87362    0.23551    0.02336   1.00
C3d      0.87291    0.11965    0.99393   1.00
H1       0.86209    0.10034    0.98106   1.00
C3       0.90433    0.17051    0.03336   1.00
H1       0.91626    0.18881    0.04635   1.00
C3       0.89914    0.09277    0.00905   1.00
H1       0.90631    0.05719    0.00543   1.00
C2       0.91370    0.11730    0.02810   1.00
C2       0.43742    0.85799    0.79182   1.00
C3       0.39945    0.87015    0.80463   1.00
H1       0.35247    0.84128    0.80453   1.00
C3       0.50610    0.89971    0.79261   1.00
H1       0.53370    0.89150    0.78399   1.00
C3a      0.42699    0.92372    0.81810   1.00
H1       0.40048    0.93214    0.82712   1.00
C3b      0.53602    0.95398    0.80591   1.00
H1       0.58313    0.98175    0.80656   1.00
C6       0.49649    0.96585    0.81913   1.00
C6       0.52825    0.02331    0.83371   1.00
C3c      0.54441    0.01310    0.85318   1.00
H1       0.54029    -0.02856   0.85669   1.00
C3d      0.53958    0.08659    0.82726   1.00
H1       0.52876    0.09508    0.81439   1.00
C3       0.57100    0.06715    0.86669   1.00
H1       0.58293    0.06078    0.87968   1.00
C3       0.56581    0.13970    0.84238   1.00
H1       0.57298    0.18245    0.83876   1.00
C2       0.58037    0.12973    0.86143   1.00
C2       0.14201    0.57942    0.79182   1.00
C3       0.12985    0.52929    0.80463   1.00
H1       0.15872    0.51118    0.80453   1.00
C3       0.10029    0.60638    0.79261   1.00
H1       0.10850    0.64219    0.78399   1.00
C3a      0.07628    0.50326    0.81810   1.00
H1       0.06786    0.46834    0.82712   1.00
C3b      0.04602    0.58203    0.80591   1.00
H1       0.01825    0.60137    0.80656   1.00
C6       0.03415    0.53063    0.81913   1.00
C6       0.97669    0.50493    0.83371   1.00
C3c      0.98690    0.53130    0.85318   1.00
H1       1.02856    0.56884    0.85669   1.00
C3d      0.91341    0.45298    0.82726   1.00
H1       0.90492    0.43367    0.81439   1.00
C3       0.93285    0.50384    0.86669   1.00
H1       0.93922    0.52214    0.87968   1.00
C3       0.86030    0.42610    0.84238   1.00
H1       0.81755    0.39052    0.83876   1.00
C2       0.87027    0.45063    0.86143   1.00
C2       0.42058    0.56258    0.79182   1.00
C3       0.47071    0.60055    0.80463   1.00
H1       0.48882    0.64753    0.80453   1.00
C3       0.39362    0.49390    0.79261   1.00
H1       0.35781    0.46630    0.78399   1.00
C3a      0.49674    0.57301    0.81810   1.00
H1       0.53166    0.59952    0.82712   1.00
C3b      0.41797    0.46398    0.80591   1.00
H1       0.39863    0.41687    0.80656   1.00
C6       0.46937    0.50351    0.81913   1.00
C6       0.49507    0.47175    0.83371   1.00
C3c      0.46870    0.45559    0.85318   1.00
H1       0.43116    0.45971    0.85669   1.00
C3d      0.54702    0.46042    0.82726   1.00
H1       0.56633    0.47124    0.81439   1.00
C3       0.49616    0.42900    0.86669   1.00
H1       0.47786    0.41707    0.87968   1.00
C3       0.57390    0.43419    0.84238   1.00
H1       0.60948    0.42702    0.83876   1.00
C2       0.54937    0.41963    0.86143   1.00
C2       0.19133    0.10408    0.37484   1.00
C3       0.20349    0.06611    0.36203   1.00
H1       0.17462    0.01913    0.36213   1.00
C3       0.23305    0.17276    0.37405   1.00
H1       0.22484    0.20036    0.38267   1.00
C3a      0.25706    0.09365    0.34856   1.00
H1       0.26548    0.06714    0.33954   1.00
C3b      0.28732    0.20268    0.36075   1.00
H1       0.31509    0.24979    0.36010   1.00
C6       0.29919    0.16315    0.34753   1.00
C6       0.35665    0.19491    0.33295   1.00
C3c      0.34644    0.21107    0.31348   1.00
H1       0.30478    0.20695    0.30997   1.00
C3d      0.41993    0.20624    0.33940   1.00
H1       0.42842    0.19542    0.35227   1.00
C3       0.40049    0.23766    0.29997   1.00
H1       0.39412    0.24959    0.28698   1.00
C3       0.47304    0.23247    0.32428   1.00
H1       0.51579    0.23964    0.32790   1.00
C2       0.46307    0.24703    0.30523   1.00
C2       0.91276    0.80867    0.37484   1.00
C3       0.86263    0.79651    0.36203   1.00
H1       0.84452    0.82538    0.36213   1.00
C3       0.93972    0.76695    0.37405   1.00
H1       0.97553    0.77516    0.38267   1.00
C3a      0.83660    0.74294    0.34856   1.00
H1       0.80168    0.73452    0.33954   1.00
C3b      0.91537    0.71268    0.36075   1.00
H1       0.93471    0.68491    0.36010   1.00
C6       0.86397    0.70081    0.34753   1.00
C6       0.83827    0.64335    0.33295   1.00
C3c      0.86464    0.65356    0.31348   1.00
H1       0.90218    0.69522    0.30997   1.00
C3d      0.78632    0.58007    0.33940   1.00
H1       0.76701    0.57158    0.35227   1.00
C3       0.83718    0.59951    0.29997   1.00
H1       0.85548    0.60588    0.28698   1.00
C3       0.75944    0.52696    0.32428   1.00
H1       0.72386    0.48421    0.32790   1.00
C2       0.78397    0.53693    0.30523   1.00
C2       0.89592    0.08724    0.37484   1.00
C3       0.93389    0.13737    0.36203   1.00
H1       0.98087    0.15548    0.36213   1.00
C3       0.82724    0.06028    0.37405   1.00
H1       0.79964    0.02447    0.38267   1.00
C3a      0.90635    0.16340    0.34856   1.00
H1       0.93286    0.19832    0.33954   1.00
C3b      0.79732    0.08463    0.36075   1.00
H1       0.75021    0.06529    0.36010   1.00
C6       0.83685    0.13603    0.34753   1.00
C6       0.80509    0.16173    0.33295   1.00
C3c      0.78893    0.13536    0.31348   1.00
H1       0.79305    0.09782    0.30997   1.00
C3d      0.79376    0.21368    0.33940   1.00
H1       0.80458    0.23299    0.35227   1.00
C3       0.76234    0.16282    0.29997   1.00
H1       0.75041    0.14452    0.28698   1.00
C3       0.76753    0.24056    0.32428   1.00
H1       0.76036    0.27614    0.32790   1.00
C2       0.75297    0.21603    0.30523   1.00
C2       0.89592    0.80867    0.87484   1.00
C3       0.93389    0.79651    0.86203   1.00
H1       0.98087    0.82538    0.86213   1.00
C3       0.82724    0.76695    0.87405   1.00
H1       0.79964    0.77516    0.88267   1.00
C3a      0.90635    0.74294    0.84856   1.00
H1       0.93286    0.73452    0.83954   1.00
C3b      0.79732    0.71268    0.86075   1.00
H1       0.75021    0.68491    0.86010   1.00
C6       0.83685    0.70081    0.84753   1.00
C6       0.80509    0.64335    0.83295   1.00
C3c      0.78893    0.65356    0.81348   1.00
H1       0.79305    0.69522    0.80997   1.00
C3d      0.79376    0.58007    0.83940   1.00
H1       0.80458    0.57158    0.85227   1.00
C3       0.76234    0.59951    0.79997   1.00
H1       0.75041    0.60588    0.78698   1.00
C3       0.76753    0.52696    0.82428   1.00
H1       0.76036    0.48421    0.82790   1.00
C2       0.75297    0.53693    0.80523   1.00
C2       0.19133    0.08724    0.87484   1.00
C3       0.20349    0.13737    0.86203   1.00
H1       0.17462    0.15548    0.86213   1.00
C3       0.23305    0.06028    0.87405   1.00
H1       0.22484    0.02447    0.88267   1.00
C3a      0.25706    0.16340    0.84856   1.00
H1       0.26548    0.19832    0.83954   1.00
C3b      0.28732    0.08463    0.86075   1.00
H1       0.31509    0.06529    0.86010   1.00
C6       0.29919    0.13603    0.84753   1.00
C6       0.35665    0.16173    0.83295   1.00
C3c      0.34644    0.13536    0.81348   1.00
H1       0.30478    0.09782    0.80997   1.00
C3d      0.41993    0.21368    0.83940   1.00
H1       0.42842    0.23299    0.85227   1.00
C3       0.40049    0.16282    0.79997   1.00
H1       0.39412    0.14452    0.78698   1.00
C3       0.47304    0.24056    0.82428   1.00
H1       0.51579    0.27614    0.82790   1.00
C2       0.46307    0.21603    0.80523   1.00
C2       0.91276    0.10408    0.87484   1.00
C3       0.86263    0.06611    0.86203   1.00
H1       0.84452    0.01913    0.86213   1.00
C3       0.93972    0.17276    0.87405   1.00
H1       0.97553    0.20036    0.88267   1.00
C3a      0.83660    0.09365    0.84856   1.00
H1       0.80168    0.06714    0.83954   1.00
C3b      0.91537    0.20268    0.86075   1.00
H1       0.93471    0.24979    0.86010   1.00
C6       0.86397    0.16315    0.84753   1.00
C6       0.83827    0.19491    0.83295   1.00
C3c      0.86464    0.21107    0.81348   1.00
H1       0.90218    0.20695    0.80997   1.00
C3d      0.78632    0.20624    0.83940   1.00
H1       0.76701    0.19542    0.85227   1.00
C3       0.83718    0.23766    0.79997   1.00
H1       0.85548    0.24959    0.78698   1.00
C3       0.75944    0.23247    0.82428   1.00
H1       0.72386    0.23964    0.82790   1.00
C2       0.78397    0.24703    0.80523   1.00
C2       0.14201    0.56258    0.29182   1.00
C3       0.12985    0.60055    0.30463   1.00
H1       0.15872    0.64753    0.30453   1.00
C3       0.10029    0.49390    0.29261   1.00
H1       0.10850    0.46630    0.28399   1.00
C3a      0.07628    0.57301    0.31810   1.00
H1       0.06786    0.59952    0.32712   1.00
C3b      0.04602    0.46398    0.30591   1.00
H1       0.01825    0.41687    0.30656   1.00
C6       0.03415    0.50351    0.31913   1.00
C6       0.97669    0.47175    0.33371   1.00
C3c      0.98690    0.45559    0.35318   1.00
H1       1.02856    0.45971    0.35669   1.00
C3d      0.91341    0.46042    0.32726   1.00
H1       0.90492    0.47124    0.31439   1.00
C3       0.93285    0.42900    0.36669   1.00
H1       0.93922    0.41707    0.37968   1.00
C3       0.86030    0.43419    0.34238   1.00
H1       0.81755    0.42702    0.33876   1.00
C2       0.87027    0.41963    0.36143   1.00
C2       0.42058    0.85799    0.29182   1.00
C3       0.47071    0.87015    0.30463   1.00
H1       0.48882    0.84128    0.30453   1.00
C3       0.39362    0.89971    0.29261   1.00
H1       0.35781    0.89150    0.28399   1.00
C3a      0.49674    0.92372    0.31810   1.00
H1       0.53166    0.93214    0.32712   1.00
C3b      0.41797    0.95398    0.30591   1.00
H1       0.39863    0.98175    0.30656   1.00
C6       0.46937    0.96585    0.31913   1.00
C6       0.49507    0.02331    0.33371   1.00
C3c      0.46870    0.01310    0.35318   1.00
H1       0.43116    -0.02856   0.35669   1.00
C3d      0.54702    0.08659    0.32726   1.00
H1       0.56633    0.09508    0.31439   1.00
C3       0.49616    0.06715    0.36669   1.00
H1       0.47786    0.06078    0.37968   1.00
C3       0.57390    0.13970    0.34238   1.00
H1       0.60948    0.18245    0.33876   1.00
C2       0.54937    0.12973    0.36143   1.00
C2       0.43742    0.57942    0.29182   1.00
C3       0.39945    0.52929    0.30463   1.00
H1       0.35247    0.51118    0.30453   1.00
C3       0.50610    0.60638    0.29261   1.00
H1       0.53370    0.64219    0.28399   1.00
C3a      0.42699    0.50326    0.31810   1.00
H1       0.40048    0.46834    0.32712   1.00
C3b      0.53602    0.58203    0.30591   1.00
H1       0.58313    0.60137    0.30656   1.00
C6       0.49649    0.53063    0.31913   1.00
C6       0.52825    0.50493    0.33371   1.00
C3c      0.54441    0.53130    0.35318   1.00
H1       0.54029    0.56884    0.35669   1.00
C3d      0.53958    0.45298    0.32726   1.00
H1       0.52876    0.43367    0.31439   1.00
C3       0.57100    0.50384    0.36669   1.00
H1       0.58293    0.52214    0.37968   1.00
C3       0.56581    0.42610    0.34238   1.00
H1       0.57298    0.39052    0.33876   1.00
C2       0.58037    0.45063    0.36143   1.00
C2       0.10408    0.19133    0.12516   1.00
C3       0.06611    0.20349    0.13797   1.00
H1       0.01913    0.17462    0.13787   1.00
C3       0.17276    0.23305    0.12595   1.00
H1       0.20036    0.22484    0.11733   1.00
C3a      0.09365    0.25706    0.15144   1.00
H1       0.06714    0.26548    0.16046   1.00
C3b      0.20268    0.28732    0.13925   1.00
H1       0.24979    0.31509    0.13990   1.00
C6       0.16315    0.29919    0.15247   1.00
C6       0.19491    0.35665    0.16705   1.00
C3c      0.21107    0.34644    0.18652   1.00
H1       0.20695    0.30478    0.19003   1.00
C3d      0.20624    0.41993    0.16060   1.00
H1       0.19542    0.42842    0.14773   1.00
C3       0.23766    0.40049    0.20003   1.00
H1       0.24959    0.39412    0.21302   1.00
C3       0.23247    0.47304    0.17572   1.00
H1       0.23964    0.51579    0.17210   1.00
C2       0.24703    0.46307    0.19477   1.00
C2       0.80867    0.91276    0.12516   1.00
C3       0.79651    0.86263    0.13797   1.00
H1       0.82538    0.84452    0.13787   1.00
C3       0.76695    0.93972    0.12595   1.00
H1       0.77516    0.97553    0.11733   1.00
C3a      0.74294    0.83660    0.15144   1.00
H1       0.73452    0.80168    0.16046   1.00
C3b      0.71268    0.91537    0.13925   1.00
H1       0.68491    0.93471    0.13990   1.00
C6       0.70081    0.86397    0.15247   1.00
C6       0.64335    0.83827    0.16705   1.00
C3c      0.65356    0.86464    0.18652   1.00
H1       0.69522    0.90218    0.19003   1.00
C3d      0.58007    0.78632    0.16060   1.00
H1       0.57158    0.76701    0.14773   1.00
C3       0.59951    0.83718    0.20003   1.00
H1       0.60588    0.85548    0.21302   1.00
C3       0.52696    0.75944    0.17572   1.00
H1       0.48421    0.72386    0.17210   1.00
C2       0.53693    0.78397    0.19477   1.00
C2       0.08724    0.89592    0.12516   1.00
C3       0.13737    0.93389    0.13797   1.00
H1       0.15548    0.98087    0.13787   1.00
C3       0.06028    0.82724    0.12595   1.00
H1       0.02447    0.79964    0.11733   1.00
C3a      0.16340    0.90635    0.15144   1.00
H1       0.19832    0.93286    0.16046   1.00
C3b      0.08463    0.79732    0.13925   1.00
H1       0.06529    0.75021    0.13990   1.00
C6       0.13603    0.83685    0.15247   1.00
C6       0.16173    0.80509    0.16705   1.00
C3c      0.13536    0.78893    0.18652   1.00
H1       0.09782    0.79305    0.19003   1.00
C3d      0.21368    0.79376    0.16060   1.00
H1       0.23299    0.80458    0.14773   1.00
C3       0.16282    0.76234    0.20003   1.00
H1       0.14452    0.75041    0.21302   1.00
C3       0.24056    0.76753    0.17572   1.00
H1       0.27614    0.76036    0.17210   1.00
C2       0.21603    0.75297    0.19477   1.00
C2       0.85799    0.43742    0.70818   1.00
C3       0.87015    0.39945    0.69537   1.00
H1       0.84128    0.35247    0.69547   1.00
C3       0.89971    0.50610    0.70739   1.00
H1       0.89150    0.53370    0.71601   1.00
C3a      0.92372    0.42699    0.68190   1.00
H1       0.93214    0.40048    0.67288   1.00
C3b      0.95398    0.53602    0.69409   1.00
H1       0.98175    0.58313    0.69344   1.00
C6       0.96585    0.49649    0.68087   1.00
C6       0.02331    0.52825    0.66629   1.00
C3c      0.01310    0.54441    0.64682   1.00
H1       -0.02856   0.54029    0.64331   1.00
C3d      0.08659    0.53958    0.67274   1.00
H1       0.09508    0.52876    0.68561   1.00
C3       0.06715    0.57100    0.63331   1.00
H1       0.06078    0.58293    0.62032   1.00
C3       0.13970    0.56581    0.65762   1.00
H1       0.18245    0.57298    0.66124   1.00
C2       0.12973    0.58037    0.63857   1.00
C2       0.57942    0.14201    0.70818   1.00
C3       0.52929    0.12985    0.69537   1.00
H1       0.51118    0.15872    0.69547   1.00
C3       0.60638    0.10029    0.70739   1.00
H1       0.64219    0.10850    0.71601   1.00
C3a      0.50326    0.07628    0.68190   1.00
H1       0.46834    0.06786    0.67288   1.00
C3b      0.58203    0.04602    0.69409   1.00
H1       0.60137    0.01825    0.69344   1.00
C6       0.53063    0.03415    0.68087   1.00
C6       0.50493    0.97669    0.66629   1.00
C3c      0.53130    0.98690    0.64682   1.00
H1       0.56884    1.02856    0.64331   1.00
C3d      0.45298    0.91341    0.67274   1.00
H1       0.43367    0.90492    0.68561   1.00
C3       0.50384    0.93285    0.63331   1.00
H1       0.52214    0.93922    0.62032   1.00
C3       0.42610    0.86030    0.65762   1.00
H1       0.39052    0.81755    0.66124   1.00
C2       0.45063    0.87027    0.63857   1.00
C2       0.56258    0.42058    0.70818   1.00
C3       0.60055    0.47071    0.69537   1.00
H1       0.64753    0.48882    0.69547   1.00
C3       0.49390    0.39362    0.70739   1.00
H1       0.46630    0.35781    0.71601   1.00
C3a      0.57301    0.49674    0.68190   1.00
H1       0.59952    0.53166    0.67288   1.00
C3b      0.46398    0.41797    0.69409   1.00
H1       0.41687    0.39863    0.69344   1.00
C6       0.50351    0.46937    0.68087   1.00
C6       0.47175    0.49507    0.66629   1.00
C3c      0.45559    0.46870    0.64682   1.00
H1       0.45971    0.43116    0.64331   1.00
C3d      0.46042    0.54702    0.67274   1.00
H1       0.47124    0.56633    0.68561   1.00
C3       0.42900    0.49616    0.63331   1.00
H1       0.41707    0.47786    0.62032   1.00
C3       0.43419    0.57390    0.65762   1.00
H1       0.42702    0.60948    0.66124   1.00
C2       0.41963    0.54937    0.63857   1.00
C2       0.56258    0.14201    0.20818   1.00
C3       0.60055    0.12985    0.19537   1.00
H1       0.64753    0.15872    0.19547   1.00
C3       0.49390    0.10029    0.20739   1.00
H1       0.46630    0.10850    0.21601   1.00
C3a      0.57301    0.07628    0.18190   1.00
H1       0.59952    0.06786    0.17288   1.00
C3b      0.46398    0.04602    0.19409   1.00
H1       0.41687    0.01825    0.19344   1.00
C6       0.50351    0.03415    0.18087   1.00
C6       0.47175    0.97669    0.16629   1.00
C3c      0.45559    0.98690    0.14682   1.00
H1       0.45971    1.02856    0.14331   1.00
C3d      0.46042    0.91341    0.17274   1.00
H1       0.47124    0.90492    0.18561   1.00
C3       0.42900    0.93285    0.13331   1.00
H1       0.41707    0.93922    0.12032   1.00
C3       0.43419    0.86030    0.15762   1.00
H1       0.42702    0.81755    0.16124   1.00
C2       0.41963    0.87027    0.13857   1.00
C2       0.85799    0.42058    0.20818   1.00
C3       0.87015    0.47071    0.19537   1.00
H1       0.84128    0.48882    0.19547   1.00
C3       0.89971    0.39362    0.20739   1.00
H1       0.89150    0.35781    0.21601   1.00
C3a      0.92372    0.49674    0.18190   1.00
H1       0.93214    0.53166    0.17288   1.00
C3b      0.95398    0.41797    0.19409   1.00
H1       0.98175    0.39863    0.19344   1.00
C6       0.96585    0.46937    0.18087   1.00
C6       0.02331    0.49507    0.16629   1.00
C3c      0.01310    0.46870    0.14682   1.00
H1       -0.02856   0.43116    0.14331   1.00
C3d      0.08659    0.54702    0.17274   1.00
H1       0.09508    0.56633    0.18561   1.00
C3       0.06715    0.49616    0.13331   1.00
H1       0.06078    0.47786    0.12032   1.00
C3       0.13970    0.57390    0.15762   1.00
H1       0.18245    0.60948    0.16124   1.00
C2       0.12973    0.54937    0.13857   1.00
C2       0.57942    0.43742    0.20818   1.00
C3       0.52929    0.39945    0.19537   1.00
H1       0.51118    0.35247    0.19547   1.00
C3       0.60638    0.50610    0.20739   1.00
H1       0.64219    0.53370    0.21601   1.00
C3a      0.50326    0.42699    0.18190   1.00
H1       0.46834    0.40048    0.17288   1.00
C3b      0.58203    0.53602    0.19409   1.00
H1       0.60137    0.58313    0.19344   1.00
C6       0.53063    0.49649    0.18087   1.00
C6       0.50493    0.52825    0.16629   1.00
C3c      0.53130    0.54441    0.14682   1.00
H1       0.56884    0.54029    0.14331   1.00
C3d      0.45298    0.53958    0.17274   1.00
H1       0.43367    0.52876    0.18561   1.00
C3       0.50384    0.57100    0.13331   1.00
H1       0.52214    0.58293    0.12032   1.00
C3       0.42610    0.56581    0.15762   1.00
H1       0.39052    0.57298    0.16124   1.00
C2       0.45063    0.58037    0.13857   1.00
C2       0.80867    0.89592    0.62516   1.00
C3       0.79651    0.93389    0.63797   1.00
H1       0.82538    0.98087    0.63787   1.00
C3       0.76695    0.82724    0.62595   1.00
H1       0.77516    0.79964    0.61733   1.00
C3a      0.74294    0.90635    0.65144   1.00
H1       0.73452    0.93286    0.66046   1.00
C3b      0.71268    0.79732    0.63925   1.00
H1       0.68491    0.75021    0.63990   1.00
C6       0.70081    0.83685    0.65247   1.00
C6       0.64335    0.80509    0.66705   1.00
C3c      0.65356    0.78893    0.68652   1.00
H1       0.69522    0.79305    0.69003   1.00
C3d      0.58007    0.79376    0.66060   1.00
H1       0.57158    0.80458    0.64773   1.00
C3       0.59951    0.76234    0.70003   1.00
H1       0.60588    0.75041    0.71302   1.00
C3       0.52696    0.76753    0.67572   1.00
H1       0.48421    0.76036    0.67210   1.00
C2       0.53693    0.75297    0.69477   1.00
C2       0.08724    0.19133    0.62516   1.00
C3       0.13737    0.20349    0.63797   1.00
H1       0.15548    0.17462    0.63787   1.00
C3       0.06028    0.23305    0.62595   1.00
H1       0.02447    0.22484    0.61733   1.00
C3a      0.16340    0.25706    0.65144   1.00
H1       0.19832    0.26548    0.66046   1.00
C3b      0.08463    0.28732    0.63925   1.00
H1       0.06529    0.31509    0.63990   1.00
C6       0.13603    0.29919    0.65247   1.00
C6       0.16173    0.35665    0.66705   1.00
C3c      0.13536    0.34644    0.68652   1.00
H1       0.09782    0.30478    0.69003   1.00
C3d      0.21368    0.41993    0.66060   1.00
H1       0.23299    0.42842    0.64773   1.00
C3       0.16282    0.40049    0.70003   1.00
H1       0.14452    0.39412    0.71302   1.00
C3       0.24056    0.47304    0.67572   1.00
H1       0.27614    0.51579    0.67210   1.00
C2       0.21603    0.46307    0.69477   1.00
C2       0.10408    0.91276    0.62516   1.00
C3       0.06611    0.86263    0.63797   1.00
H1       0.01913    0.84452    0.63787   1.00
C3       0.17276    0.93972    0.62595   1.00
H1       0.20036    0.97553    0.61733   1.00
C3a      0.09365    0.83660    0.65144   1.00
H1       0.06714    0.80168    0.66046   1.00
C3b      0.20268    0.91537    0.63925   1.00
H1       0.24979    0.93471    0.63990   1.00
C6       0.16315    0.86397    0.65247   1.00
C6       0.19491    0.83827    0.66705   1.00
C3c      0.21107    0.86464    0.68652   1.00
H1       0.20695    0.90218    0.69003   1.00
C3d      0.20624    0.78632    0.66060   1.00
H1       0.19542    0.76701    0.64773   1.00
C3       0.23766    0.83718    0.70003   1.00
H1       0.24959    0.85548    0.71302   1.00
C3       0.23247    0.75944    0.67572   1.00
H1       0.23964    0.72386    0.67210   1.00
C2       0.24703    0.78397    0.69477   1.00
