data_IRMOF10_interpen_symm_ligand3cp_label_j_2.

_audit_creation_method             'generated by an auxiliary program of Tobunporous'

_symmetry_space_group_name_H-M     'P 1'
_symmetry_Int_Tables_number        1
_symmetry_cell_setting             triclinic

_cell_length_a                    22.6523
_cell_length_b                    22.6523
_cell_length_c                    65.9502
_cell_angle_alpha                 90.0000
_cell_angle_beta                  90.0000
_cell_angle_gamma                 120.0000

loop_
_atom_site_label
_atom_site_fract_x
_atom_site_fract_y
_atom_site_fract_z
_atom_site_occupancy
O1       0.00000    0.00000    0.57470   1.00
Zn1      0.00000    0.00000    0.54560   1.00
Zn1      0.94843    0.04287    0.58357   1.00
Zn1      0.09443    0.05157    0.58357   1.00
Zn1      0.95713    0.90557    0.58357   1.00
O2       0.93860    0.02610    0.53560   1.00
O2       0.08750    0.06140    0.53560   1.00
O2       0.97390    0.91250    0.53560   1.00
O2       0.91300    0.07160    0.56150   1.00
O2       0.00463    0.12027    0.60077   1.00
O2       0.87413    0.98077    0.60037   1.00
O2       0.15860    0.08700    0.56150   1.00
O2       0.10663    0.12587    0.60037   1.00
O2       0.11563    0.99537    0.60077   1.00
O2       0.92840    0.84140    0.56150   1.00
O2       0.87973    0.88437    0.60077   1.00
O2       0.01923    0.89337    0.60037   1.00
C1       0.91390    0.06020    0.54330   1.00
C1       0.14630    0.08610    0.54330   1.00
C1       0.93980    0.85370    0.54330   1.00
C1       0.06663    0.14397    0.60637   1.00
C1       0.85603    0.92267    0.60637   1.00
C1       0.07733    0.93337    0.60637   1.00
O1       0.00000    0.00000    0.92530   1.00
Zn1      0.00000    0.00000    0.95440   1.00
Zn1      0.04287    0.94843    0.91643   1.00
Zn1      0.05157    0.09443    0.91643   1.00
Zn1      0.90557    0.95713    0.91643   1.00
O2       0.02610    0.93860    0.96440   1.00
O2       0.06140    0.08750    0.96440   1.00
O2       0.91250    0.97390    0.96440   1.00
O2       0.07160    0.91300    0.93850   1.00
O2       0.12027    0.00463    0.89923   1.00
O2       0.98077    0.87413    0.89963   1.00
O2       0.08700    0.15860    0.93850   1.00
O2       0.12587    0.10663    0.89963   1.00
O2       0.99537    0.11563    0.89923   1.00
O2       0.84140    0.92840    0.93850   1.00
O2       0.88437    0.87973    0.89923   1.00
O2       0.89337    0.01923    0.89963   1.00
C1       0.06020    0.91390    0.95670   1.00
C1       0.08610    0.14630    0.95670   1.00
C1       0.85370    0.93980    0.95670   1.00
C1       0.14397    0.06663    0.89363   1.00
C1       0.92267    0.85603    0.89363   1.00
C1       0.93337    0.07733    0.89363   1.00
O1       0.00000    0.00000    0.42530   1.00
Zn1      0.00000    0.00000    0.45440   1.00
Zn1      0.05157    0.95713    0.41643   1.00
Zn1      0.90557    0.94843    0.41643   1.00
Zn1      0.04287    0.09443    0.41643   1.00
O2       0.06140    0.97390    0.46440   1.00
O2       0.91250    0.93860    0.46440   1.00
O2       0.02610    0.08750    0.46440   1.00
O2       0.08700    0.92840    0.43850   1.00
O2       0.99537    0.87973    0.39923   1.00
O2       0.12587    0.01923    0.39963   1.00
O2       0.84140    0.91300    0.43850   1.00
O2       0.89337    0.87413    0.39963   1.00
O2       0.88437    0.00463    0.39923   1.00
O2       0.07160    0.15860    0.43850   1.00
O2       0.12027    0.11563    0.39923   1.00
O2       0.98077    0.10663    0.39963   1.00
C1       0.08610    0.93980    0.45670   1.00
C1       0.85370    0.91390    0.45670   1.00
C1       0.06020    0.14630    0.45670   1.00
C1       0.93337    0.85603    0.39363   1.00
C1       0.14397    0.07733    0.39363   1.00
C1       0.92267    0.06663    0.39363   1.00
O1       0.00000    0.00000    0.07470   1.00
Zn1      0.00000    0.00000    0.04560   1.00
Zn1      0.95713    0.05157    0.08357   1.00
Zn1      0.94843    0.90557    0.08357   1.00
Zn1      0.09443    0.04287    0.08357   1.00
O2       0.97390    0.06140    0.03560   1.00
O2       0.93860    0.91250    0.03560   1.00
O2       0.08750    0.02610    0.03560   1.00
O2       0.92840    0.08700    0.06150   1.00
O2       0.87973    0.99537    0.10077   1.00
O2       0.01923    0.12587    0.10037   1.00
O2       0.91300    0.84140    0.06150   1.00
O2       0.87413    0.89337    0.10037   1.00
O2       0.00463    0.88437    0.10077   1.00
O2       0.15860    0.07160    0.06150   1.00
O2       0.11563    0.12027    0.10077   1.00
O2       0.10663    0.98077    0.10037   1.00
C1       0.93980    0.08610    0.04330   1.00
C1       0.91390    0.85370    0.04330   1.00
C1       0.14630    0.06020    0.04330   1.00
C1       0.85603    0.93337    0.10637   1.00
C1       0.07733    0.14397    0.10637   1.00
C1       0.06663    0.92267    0.10637   1.00
O1       0.66667    0.33333    0.90803   1.00
Zn1      0.66667    0.33333    0.87893   1.00
Zn1      0.61510    0.37620    0.91690   1.00
Zn1      0.76110    0.38490    0.91690   1.00
Zn1      0.62380    0.23890    0.91690   1.00
O2       0.60527    0.35943    0.86893   1.00
O2       0.75417    0.39473    0.86893   1.00
O2       0.64057    0.24583    0.86893   1.00
O2       0.57967    0.40493    0.89483   1.00
O2       0.67130    0.45360    0.93410   1.00
O2       0.54080    0.31410    0.93370   1.00
O2       0.82527    0.42033    0.89483   1.00
O2       0.77330    0.45920    0.93370   1.00
O2       0.78230    0.32870    0.93410   1.00
O2       0.59507    0.17473    0.89483   1.00
O2       0.54640    0.21770    0.93410   1.00
O2       0.68590    0.22670    0.93370   1.00
C1       0.58057    0.39353    0.87663   1.00
C1       0.81297    0.41943    0.87663   1.00
C1       0.60647    0.18703    0.87663   1.00
C1       0.73330    0.47730    0.93970   1.00
C1       0.52270    0.25600    0.93970   1.00
C1       0.74400    0.26670    0.93970   1.00
O1       0.66667    0.33333    0.25863   1.00
Zn1      0.66667    0.33333    0.28773   1.00
Zn1      0.70953    0.28177    0.24977   1.00
Zn1      0.71823    0.42777    0.24977   1.00
Zn1      0.57223    0.29047    0.24977   1.00
O2       0.69277    0.27193    0.29773   1.00
O2       0.72807    0.42083    0.29773   1.00
O2       0.57917    0.30723    0.29773   1.00
O2       0.73827    0.24633    0.27183   1.00
O2       0.78693    0.33797    0.23257   1.00
O2       0.64743    0.20747    0.23297   1.00
O2       0.75367    0.49193    0.27183   1.00
O2       0.79253    0.43997    0.23297   1.00
O2       0.66203    0.44897    0.23257   1.00
O2       0.50807    0.26173    0.27183   1.00
O2       0.55103    0.21307    0.23257   1.00
O2       0.56003    0.35257    0.23297   1.00
C1       0.72687    0.24723    0.29003   1.00
C1       0.75277    0.47963    0.29003   1.00
C1       0.52037    0.27313    0.29003   1.00
C1       0.81063    0.39997    0.22697   1.00
C1       0.58933    0.18937    0.22697   1.00
C1       0.60003    0.41067    0.22697   1.00
O1       0.66667    0.33333    0.75863   1.00
Zn1      0.66667    0.33333    0.78773   1.00
Zn1      0.71823    0.29047    0.74977   1.00
Zn1      0.57223    0.28177    0.74977   1.00
Zn1      0.70953    0.42777    0.74977   1.00
O2       0.72807    0.30723    0.79773   1.00
O2       0.57917    0.27193    0.79773   1.00
O2       0.69277    0.42083    0.79773   1.00
O2       0.75367    0.26173    0.77183   1.00
O2       0.66203    0.21307    0.73257   1.00
O2       0.79253    0.35257    0.73297   1.00
O2       0.50807    0.24633    0.77183   1.00
O2       0.56003    0.20747    0.73297   1.00
O2       0.55103    0.33797    0.73257   1.00
O2       0.73827    0.49193    0.77183   1.00
O2       0.78693    0.44897    0.73257   1.00
O2       0.64743    0.43997    0.73297   1.00
C1       0.75277    0.27313    0.79003   1.00
C1       0.52037    0.24723    0.79003   1.00
C1       0.72687    0.47963    0.79003   1.00
C1       0.60003    0.18937    0.72697   1.00
C1       0.81063    0.41067    0.72697   1.00
C1       0.58933    0.39997    0.72697   1.00
O1       0.66667    0.33333    0.40803   1.00
Zn1      0.66667    0.33333    0.37893   1.00
Zn1      0.62380    0.38490    0.41690   1.00
Zn1      0.61510    0.23890    0.41690   1.00
Zn1      0.76110    0.37620    0.41690   1.00
O2       0.64057    0.39473    0.36893   1.00
O2       0.60527    0.24583    0.36893   1.00
O2       0.75417    0.35943    0.36893   1.00
O2       0.59507    0.42033    0.39483   1.00
O2       0.54640    0.32870    0.43410   1.00
O2       0.68590    0.45920    0.43370   1.00
O2       0.57967    0.17473    0.39483   1.00
O2       0.54080    0.22670    0.43370   1.00
O2       0.67130    0.21770    0.43410   1.00
O2       0.82527    0.40493    0.39483   1.00
O2       0.78230    0.45360    0.43410   1.00
O2       0.77330    0.31410    0.43370   1.00
C1       0.60647    0.41943    0.37663   1.00
C1       0.58057    0.18703    0.37663   1.00
C1       0.81297    0.39353    0.37663   1.00
C1       0.52270    0.26670    0.43970   1.00
C1       0.74400    0.47730    0.43970   1.00
C1       0.73330    0.25600    0.43970   1.00
O1       0.33333    0.66667    0.24137   1.00
Zn1      0.33333    0.66667    0.21227   1.00
Zn1      0.28177    0.70953    0.25023   1.00
Zn1      0.42777    0.71823    0.25023   1.00
Zn1      0.29047    0.57223    0.25023   1.00
O2       0.27193    0.69277    0.20227   1.00
O2       0.42083    0.72807    0.20227   1.00
O2       0.30723    0.57917    0.20227   1.00
O2       0.24633    0.73827    0.22817   1.00
O2       0.33797    0.78693    0.26743   1.00
O2       0.20747    0.64743    0.26703   1.00
O2       0.49193    0.75367    0.22817   1.00
O2       0.43997    0.79253    0.26703   1.00
O2       0.44897    0.66203    0.26743   1.00
O2       0.26173    0.50807    0.22817   1.00
O2       0.21307    0.55103    0.26743   1.00
O2       0.35257    0.56003    0.26703   1.00
C1       0.24723    0.72687    0.20997   1.00
C1       0.47963    0.75277    0.20997   1.00
C1       0.27313    0.52037    0.20997   1.00
C1       0.39997    0.81063    0.27303   1.00
C1       0.18937    0.58933    0.27303   1.00
C1       0.41067    0.60003    0.27303   1.00
O1       0.33333    0.66667    0.59197   1.00
Zn1      0.33333    0.66667    0.62107   1.00
Zn1      0.37620    0.61510    0.58310   1.00
Zn1      0.38490    0.76110    0.58310   1.00
Zn1      0.23890    0.62380    0.58310   1.00
O2       0.35943    0.60527    0.63107   1.00
O2       0.39473    0.75417    0.63107   1.00
O2       0.24583    0.64057    0.63107   1.00
O2       0.40493    0.57967    0.60517   1.00
O2       0.45360    0.67130    0.56590   1.00
O2       0.31410    0.54080    0.56630   1.00
O2       0.42033    0.82527    0.60517   1.00
O2       0.45920    0.77330    0.56630   1.00
O2       0.32870    0.78230    0.56590   1.00
O2       0.17473    0.59507    0.60517   1.00
O2       0.21770    0.54640    0.56590   1.00
O2       0.22670    0.68590    0.56630   1.00
C1       0.39353    0.58057    0.62337   1.00
C1       0.41943    0.81297    0.62337   1.00
C1       0.18703    0.60647    0.62337   1.00
C1       0.47730    0.73330    0.56030   1.00
C1       0.25600    0.52270    0.56030   1.00
C1       0.26670    0.74400    0.56030   1.00
O1       0.33333    0.66667    0.09197   1.00
Zn1      0.33333    0.66667    0.12107   1.00
Zn1      0.38490    0.62380    0.08310   1.00
Zn1      0.23890    0.61510    0.08310   1.00
Zn1      0.37620    0.76110    0.08310   1.00
O2       0.39473    0.64057    0.13107   1.00
O2       0.24583    0.60527    0.13107   1.00
O2       0.35943    0.75417    0.13107   1.00
O2       0.42033    0.59507    0.10517   1.00
O2       0.32870    0.54640    0.06590   1.00
O2       0.45920    0.68590    0.06630   1.00
O2       0.17473    0.57967    0.10517   1.00
O2       0.22670    0.54080    0.06630   1.00
O2       0.21770    0.67130    0.06590   1.00
O2       0.40493    0.82527    0.10517   1.00
O2       0.45360    0.78230    0.06590   1.00
O2       0.31410    0.77330    0.06630   1.00
C1       0.41943    0.60647    0.12337   1.00
C1       0.18703    0.58057    0.12337   1.00
C1       0.39353    0.81297    0.12337   1.00
C1       0.26670    0.52270    0.06030   1.00
C1       0.47730    0.74400    0.06030   1.00
C1       0.25600    0.73330    0.06030   1.00
O1       0.33333    0.66667    0.74137   1.00
Zn1      0.33333    0.66667    0.71227   1.00
Zn1      0.29047    0.71823    0.75023   1.00
Zn1      0.28177    0.57223    0.75023   1.00
Zn1      0.42777    0.70953    0.75023   1.00
O2       0.30723    0.72807    0.70227   1.00
O2       0.27193    0.57917    0.70227   1.00
O2       0.42083    0.69277    0.70227   1.00
O2       0.26173    0.75367    0.72817   1.00
O2       0.21307    0.66203    0.76743   1.00
O2       0.35257    0.79253    0.76703   1.00
O2       0.24633    0.50807    0.72817   1.00
O2       0.20747    0.56003    0.76703   1.00
O2       0.33797    0.55103    0.76743   1.00
O2       0.49193    0.73827    0.72817   1.00
O2       0.44897    0.78693    0.76743   1.00
O2       0.43997    0.64743    0.76703   1.00
C1       0.27313    0.75277    0.70997   1.00
C1       0.24723    0.52037    0.70997   1.00
C1       0.47963    0.72687    0.70997   1.00
C1       0.18937    0.60003    0.77303   1.00
C1       0.41067    0.81063    0.77303   1.00
C1       0.39997    0.58933    0.77303   1.00
C4       0.86650    0.69875    0.49701   1.00
C4       0.84129    0.64634    0.48194   1.00
C3       0.93213    0.75794    0.49622   1.00
C3       0.88134    0.64480    0.46559   1.00
C3       0.82457    0.69163    0.51406   1.00
C3       0.77220    0.59222    0.48307   1.00
C2       0.91503    0.80078    0.52862   1.00
C2       0.78701    0.53772    0.45232   1.00
C3       0.95592    0.80738    0.51163   1.00
C3       0.85480    0.59235    0.45108   1.00
C3       0.84903    0.74270    0.52926   1.00
C3       0.74732    0.53834    0.46879   1.00
H1       0.96449    0.76698    0.48439   1.00
H1       0.93108    0.68151    0.46381   1.00
C5       0.75840    0.63368    0.51578   1.00
C5       0.72845    0.59175    0.49852   1.00
H1       1.00404    0.84887    0.51031   1.00
H1       0.88595    0.59421    0.43949   1.00
H1       0.81767    0.73783    0.54112   1.00
H1       0.69914    0.49778    0.47056   1.00
O3       0.72280    0.62131    0.53370   1.00
O3       0.65878    0.54802    0.49760   1.00
Si1      0.72755    0.57157    0.55076   1.00
Si1      0.61223    0.57086    0.48456   1.00
C6       0.68349    0.58715    0.57021   1.00
C6       0.68002    0.48720    0.54171   1.00
C6       0.81201    0.59722    0.55808   1.00
C6       0.65377    0.64951    0.47148   1.00
C6       0.57059    0.50407    0.46706   1.00
C6       0.55035    0.56886    0.50118   1.00
C6       0.70629    0.66391    0.57416   1.00
H2       0.63202    0.56456    0.56398   1.00
C6       0.67485    0.55462    0.59182   1.00
H2       0.64400    0.49058    0.53146   1.00
C6       0.71751    0.45817    0.52869   1.00
C6       0.63535    0.42915    0.55709   1.00
H2       0.83339    0.65181    0.56074   1.00
C6       0.82199    0.56710    0.57835   1.00
C6       0.86099    0.59006    0.54265   1.00
C6       0.69946    0.71561    0.48401   1.00
C6       0.69408    0.65575    0.45152   1.00
H2       0.61094    0.65481    0.46622   1.00
H2       0.61118    0.51050    0.45679   1.00
C6       0.53976    0.43012    0.47577   1.00
C6       0.51401    0.50433    0.45352   1.00
H2       0.51112    0.51508    0.50174   1.00
C6       0.57288    0.58893    0.52366   1.00
C6       0.51290    0.60839    0.49486   1.00
H2       0.70358    0.68908    0.56035   1.00
H2       0.75860    0.69201    0.57985   1.00
H2       0.67320    0.66883    0.58529   1.00
H2       0.62604    0.54356    0.59840   1.00
H2       0.67596    0.50720    0.59156   1.00
H2       0.71431    0.58893    0.60238   1.00
H2       0.68076    0.41224    0.52056   1.00
H2       0.75027    0.49420    0.51721   1.00
H2       0.74824    0.44440    0.53821   1.00
H2       0.59943    0.43980    0.56503   1.00
H2       0.60454    0.38037    0.54934   1.00
H2       0.66710    0.42218    0.56822   1.00
H2       0.79216    0.51146    0.57834   1.00
H2       0.87541    0.58199    0.58093   1.00
H2       0.80753    0.58628    0.59141   1.00
H2       0.85651    0.53982    0.54338   1.00
H2       0.85231    0.59833    0.52702   1.00
H2       0.91405    0.62757    0.54612   1.00
H2       0.75045    0.72333    0.48638   1.00
H2       0.70545    0.76054    0.47598   1.00
H2       0.67752    0.71480    0.49877   1.00
H2       0.70841    0.70379    0.44377   1.00
H2       0.74101    0.65507    0.45444   1.00
H2       0.66368    0.61527    0.44073   1.00
H2       0.52558    0.39315    0.46343   1.00
H2       0.57672    0.42507    0.48519   1.00
H2       0.49427    0.41550    0.48488   1.00
H2       0.53178    0.55371    0.44627   1.00
H2       0.49911    0.46661    0.44136   1.00
H2       0.46830    0.49156    0.46233   1.00
H2       0.61425    0.64152    0.52508   1.00
H2       0.53056    0.58251    0.53317   1.00
H2       0.59056    0.55610    0.52987   1.00
H2       0.46907    0.59478    0.50472   1.00
H2       0.54672    0.66353    0.49592   1.00
H2       0.49336    0.59618    0.47941   1.00
C4       0.30862    0.16967    0.49921   1.00
C4       0.35958    0.19487    0.48370   1.00
C3       0.31171    0.13528    0.51684   1.00
C3       0.41536    0.18278    0.48334   1.00
C3       0.25057    0.17813    0.49699   1.00
C3       0.35520    0.23460    0.46758   1.00
C2       0.20183    0.11725    0.52940   1.00
C2       0.45967    0.24629    0.45154   1.00
C3       0.25963    0.10943    0.53146   1.00
C3       0.46440    0.20830    0.46781   1.00
C3       0.19921    0.15281    0.51211   1.00
C3       0.40351    0.25736    0.45162   1.00
H1       0.35200    0.12821    0.51960   1.00
H1       0.42177    0.15472    0.49428   1.00
C5       0.24436    0.21208    0.47973   1.00
C5       0.30240    0.25092    0.46734   1.00
H1       0.26441    0.08457    0.54382   1.00
H1       0.50396    0.19845    0.46844   1.00
H1       0.15880    0.16092    0.51059   1.00
H1       0.39721    0.28198    0.43954   1.00
O3       0.18358    0.21018    0.47595   1.00
O3       0.30476    0.29990    0.45432   1.00
Si1      0.12708    0.15140    0.46108   1.00
Si1      0.34729    0.37981    0.46116   1.00
C6       0.06059    0.16902    0.46559   1.00
C6       0.15783    0.17249    0.43603   1.00
C6       0.10379    0.06778    0.46870   1.00
C6       0.39092    0.40015    0.48462   1.00
C6       0.40631    0.41839    0.44138   1.00
C6       0.29020    0.41130    0.46045   1.00
C6       0.04660    0.17748    0.48840   1.00
H2       0.08083    0.21961    0.45889   1.00
C6       -0.01171   0.12412    0.45581   1.00
H2       0.19152    0.22757    0.43707   1.00
C6       0.20278    0.14360    0.42748   1.00
C6       0.10612    0.16144    0.41867   1.00
H2       0.09446    0.06894    0.48492   1.00
C6       0.03633    0.00796    0.45965   1.00
C6       0.15675    0.04249    0.46667   1.00
C6       0.34871    0.36584    0.50422   1.00
C6       0.45871    0.39788    0.48659   1.00
H2       0.40765    0.45426    0.48620   1.00
H2       0.44153    0.39916    0.44335   1.00
C6       0.37751    0.39734    0.41934   1.00
C6       0.45065    0.49795    0.44150   1.00
H2       0.28835    0.42262    0.44445   1.00
C6       0.21481    0.35998    0.46631   1.00
C6       0.31009    0.47881    0.47222   1.00
H2       0.09260    0.21650    0.49595   1.00
H2       0.02812    0.12972    0.49674   1.00
H2       0.00846    0.19339    0.48979   1.00
H2       -0.03466   0.15557    0.45247   1.00
H2       -0.01010   0.10008    0.44172   1.00
H2       -0.04695   0.08370    0.46597   1.00
H2       0.23009    0.17141    0.41385   1.00
H2       0.24149    0.14884    0.43826   1.00
H2       0.17163    0.08993    0.42335   1.00
H2       0.07853    0.18850    0.42179   1.00
H2       0.13229    0.18130    0.40420   1.00
H2       0.06945    0.10732    0.41656   1.00
H2       0.03661    0.01006    0.44310   1.00
H2       0.02851    -0.04204   0.46408   1.00
H2       -0.00816   0.00912    0.46528   1.00
H2       0.15497    0.02088    0.45173   1.00
H2       0.20900    0.08223    0.46921   1.00
H2       0.14560    0.00247    0.47783   1.00
H2       0.34165    0.31507    0.50653   1.00
H2       0.37515    0.39598    0.51762   1.00
H2       0.29868    0.36161    0.50390   1.00
H2       0.48433    0.42081    0.50091   1.00
H2       0.44987    0.34604    0.48639   1.00
H2       0.49497    0.42668    0.47460   1.00
H2       0.41926    0.41449    0.40840   1.00
H2       0.34669    0.34196    0.41780   1.00
H2       0.34620    0.41938    0.41493   1.00
H2       0.47463    0.51727    0.45622   1.00
H2       0.49179    0.51514    0.43034   1.00
H2       0.42033    0.52165    0.43764   1.00
H2       0.21006    0.34252    0.48195   1.00
H2       0.18208    0.38223    0.46434   1.00
H2       0.19478    0.31553    0.45653   1.00
H2       0.27628    0.49840    0.46811   1.00
H2       0.30638    0.47070    0.48862   1.00
H2       0.36183    0.51888    0.46866   1.00
C4       0.83142    0.13980    0.49914   1.00
C4       0.80606    0.16530    0.48360   1.00
C3       0.87696    0.18127    0.51460   1.00
C3       0.82845    0.23561    0.48087   1.00
C3       0.81129    0.06916    0.49919   1.00
C3       0.75534    0.11839    0.46994   1.00
C2       0.88307    0.08502    0.52944   1.00
C2       0.75339    0.21294    0.45150   1.00
C3       0.90239    0.15476    0.52927   1.00
C3       0.80240    0.25876    0.46539   1.00
C3       0.83652    0.04316    0.51435   1.00
C3       0.73190    0.14302    0.45392   1.00
H1       0.89279    0.23190    0.51570   1.00
H1       0.86464    0.27211    0.48997   1.00
C5       0.76586    0.02489    0.48416   1.00
C5       0.72868    0.04727    0.47222   1.00
H1       0.93557    0.18730    0.53999   1.00
H1       0.82005    0.31014    0.46426   1.00
H1       0.82016    -0.00797   0.51453   1.00
H1       0.69885    0.10918    0.44350   1.00
O3       0.75555    -0.04018   0.48220   1.00
O3       0.67074    0.00074    0.46191   1.00
Si1      0.80131    -0.05516   0.46610   1.00
Si1      0.59623    -0.02147   0.47164   1.00
C6       0.77315    -0.14003   0.47356   1.00
C6       0.77230    -0.05185   0.44155   1.00
C6       0.88997    -0.00274   0.46986   1.00
C6       0.59326    0.01752    0.49456   1.00
C6       0.55599    -0.00105   0.45235   1.00
C6       0.55246    -0.11081   0.47440   1.00
C6       0.77253    -0.15253   0.49697   1.00
H2       0.71959    -0.16606   0.46903   1.00
C6       0.80380    -0.18200   0.46372   1.00
H2       0.71996    -0.06407   0.44449   1.00
C6       0.80682    0.01815    0.43016   1.00
C6       0.76687    -0.10505   0.42541   1.00
H2       0.89480    -0.00668   0.48623   1.00
C6       0.93770    -0.02600   0.45979   1.00
C6       0.92513    0.07550    0.46486   1.00
C6       0.63179    0.01125    0.51338   1.00
C6       0.60837    0.09301    0.49429   1.00
H2       0.53927    -0.01177   0.49851   1.00
H2       0.58352    0.05457    0.45219   1.00
C6       0.56297    -0.02289   0.43035   1.00
C6       0.47898    -0.02394   0.45538   1.00
H2       0.53248    -0.12982   0.45926   1.00
C6       0.59683    -0.14358   0.47976   1.00
C6       0.48957    -0.14414   0.48903   1.00
H2       0.74253    -0.13450   0.50510   1.00
H2       0.82416    -0.12639   0.50322   1.00
H2       0.74963    -0.20687   0.50038   1.00
H2       0.76474    -0.23589   0.46282   1.00
H2       0.82301    -0.16514   0.44846   1.00
H2       0.84557    -0.17952   0.47268   1.00
H2       0.77547    0.01682    0.41736   1.00
H2       0.81306    0.05969    0.43990   1.00
H2       0.85663    0.03050    0.42416   1.00
H2       0.73474    -0.15720   0.43079   1.00
H2       0.74340    -0.10091   0.41138   1.00
H2       0.81717    -0.09732   0.42155   1.00
H2       0.92766    -0.03479   0.44355   1.00
H2       0.99170    0.01183    0.46173   1.00
H2       0.93142    -0.07223   0.46679   1.00
H2       0.94076    0.08620    0.44900   1.00
H2       0.89306    0.09740    0.46789   1.00
H2       0.97112    0.10387    0.47407   1.00
H2       0.68574    0.04964    0.51315   1.00
H2       0.61062    0.01874    0.52741   1.00
H2       0.62746    -0.03874   0.51438   1.00
H2       0.59518    0.10641    0.50888   1.00
H2       0.66196    0.12935    0.49158   1.00
H2       0.57829    0.10112    0.48287   1.00
H2       0.54675    0.00186    0.41918   1.00
H2       0.61589    -0.00755   0.42681   1.00
H2       0.53197    -0.07788   0.42814   1.00
H2       0.46954    -0.00893   0.47021   1.00
H2       0.46252    0.00004    0.44401   1.00
H2       0.44665    -0.07910   0.45378   1.00
H2       0.62202    -0.12636   0.49442   1.00
H2       0.56651    -0.19920   0.48002   1.00
H2       0.63606    -0.12995   0.46833   1.00
H2       0.46088    -0.19951   0.48707   1.00
H2       0.50534    -0.13377   0.50491   1.00
H2       0.45416    -0.12575   0.48607   1.00
C4       0.69866    0.86689    0.00296   1.00
C4       0.64620    0.84156    0.01802   1.00
C3       0.75487    0.93451    0.00285   1.00
C3       0.64136    0.88294    0.03337   1.00
C3       0.69468    0.82289    -0.01314   1.00
C3       0.59553    0.77097    0.01793   1.00
C2       0.80084    0.91522    -0.02860   1.00
C2       0.53766    0.78682    0.04766   1.00
C3       0.80436    0.95818    -0.01255   1.00
C3       0.58897    0.85623    0.04790   1.00
C3       0.74581    0.84736    -0.02832   1.00
C3       0.54153    0.74569    0.03217   1.00
H1       0.76163    0.96849    0.01399   1.00
H1       0.67549    0.93378    0.03437   1.00
C5       0.63982    0.75466    -0.01393   1.00
C5       0.59859    0.72607    0.00354   1.00
H1       0.84359    1.00775    -0.01191   1.00
H1       0.58837    0.88844    0.05875   1.00
H1       0.74331    0.81466    -0.03946   1.00
H1       0.50328    0.69604    0.03110   1.00
O3       0.62990    0.71612    -0.03110   1.00
O3       0.55872    0.65616    0.00562   1.00
Si1      0.57804    0.71332    -0.04878   1.00
Si1      0.58599    0.61605    0.01997   1.00
C6       0.59779    0.66862    -0.06697   1.00
C6       0.49424    0.66293    -0.03955   1.00
C6       0.59803    0.79467    -0.05779   1.00
C6       0.66421    0.66463    0.03291   1.00
C6       0.51991    0.57435    0.03769   1.00
C6       0.58890    0.55347    0.00483   1.00
C6       0.67562    0.69578    -0.07062   1.00
H2       0.57838    0.61884    -0.05979   1.00
C6       0.56486    0.65352    -0.08868   1.00
H2       0.50051    0.63078    -0.02843   1.00
C6       0.46109    0.69901    -0.02776   1.00
C6       0.43764    0.61256    -0.05447   1.00
H2       0.65297    0.81895    -0.06035   1.00
C6       0.56613    0.79782    -0.07857   1.00
C6       0.58666    0.84396    -0.04363   1.00
C6       0.72923    0.71112    0.02005   1.00
C6       0.66738    0.70758    0.05193   1.00
H2       0.67304    0.62515    0.03922   1.00
H2       0.52331    0.61569    0.04704   1.00
C6       0.44570    0.53726    0.02891   1.00
C6       0.52455    0.52295    0.05253   1.00
H2       0.53622    0.51157    0.00461   1.00
C6       0.60807    0.57220    -0.01791   1.00
C6       0.63281    0.52207    0.01244   1.00
H2       0.70186    0.69792    -0.05650   1.00
H2       0.70067    0.74691    -0.07721   1.00
H2       0.68340    0.66236    -0.08088   1.00
H2       0.55728    0.60468    -0.09422   1.00
H2       0.51560    0.65084    -0.08896   1.00
H2       0.59740    0.69190    -0.09977   1.00
H2       0.41631    0.66180    -0.01928   1.00
H2       0.49581    0.73545    -0.01668   1.00
H2       0.44445    0.72540    -0.03813   1.00
H2       0.45157    0.57751    -0.06144   1.00
H2       0.38944    0.58074    -0.04655   1.00
H2       0.42799    0.64016    -0.06640   1.00
H2       0.51078    0.76486    -0.07846   1.00
H2       0.57737    0.84956    -0.08224   1.00
H2       0.58724    0.78296    -0.09105   1.00
H2       0.53491    0.83551    -0.04480   1.00
H2       0.59582    0.83939    -0.02774   1.00
H2       0.62139    0.89700    -0.04793   1.00
H2       0.73324    0.76001    0.01657   1.00
H2       0.77531    0.72202    0.02841   1.00
H2       0.73021    0.68718    0.00584   1.00
H2       0.71602    0.72665    0.05985   1.00
H2       0.66299    0.75182    0.04791   1.00
H2       0.62773    0.67741    0.06297   1.00
H2       0.40839    0.52318    0.04115   1.00
H2       0.43760    0.57033    0.01860   1.00
H2       0.43418    0.49081    0.02074   1.00
H2       0.57432    0.54531    0.05988   1.00
H2       0.48654    0.50809    0.06460   1.00
H2       0.51497    0.47650    0.04468   1.00
H2       0.65936    0.61566    -0.01973   1.00
H2       0.60480    0.52936    -0.02647   1.00
H2       0.57267    0.58525    -0.02488   1.00
H2       0.62221    0.47715    0.00349   1.00
H2       0.68733    0.55860    0.01119   1.00
H2       0.62159    0.50546    0.02819   1.00
C4       0.16966    0.30862    0.00079   1.00
C4       0.19486    0.35957    0.01630   1.00
C3       0.13513    0.31163    -0.01681   1.00
C3       0.18265    0.41527    0.01668   1.00
C3       0.17826    0.25065    0.00299   1.00
C3       0.23472    0.35529    0.03240   1.00
C2       0.11724    0.20183    -0.02940   1.00
C2       0.24630    0.45967    0.04846   1.00
C3       0.10929    0.25956    -0.03144   1.00
C3       0.20817    0.46432    0.03221   1.00
C3       0.15294    0.19928    -0.01213   1.00
C3       0.25749    0.40359    0.04835   1.00
H1       0.12796    0.35187    -0.01956   1.00
H1       0.15449    0.42163    0.00576   1.00
C5       0.21235    0.24451    0.02022   1.00
C5       0.25117    0.30257    0.03261   1.00
H1       0.08433    0.26428    -0.04379   1.00
H1       0.19823    0.50382    0.03161   1.00
H1       0.16115    0.15894    -0.01063   1.00
H1       0.28221    0.39734    0.06042   1.00
O3       0.21059    0.18379    0.02399   1.00
O3       0.30026    0.30502    0.04560   1.00
Si1      0.15194    0.12723    0.03888   1.00
Si1      0.38013    0.34768    0.03873   1.00
C6       0.16969    0.06084    0.03433   1.00
C6       0.17312    0.15799    0.06392   1.00
C6       0.06824    0.10379    0.03130   1.00
C6       0.40028    0.39130    0.01527   1.00
C6       0.41873    0.40671    0.05850   1.00
C6       0.41177    0.29071    0.03939   1.00
C6       0.17807    0.04688    0.01151   1.00
H2       0.22032    0.08116    0.04101   1.00
C6       0.12494    -0.01148   0.04412   1.00
H2       0.22818    0.19176    0.06286   1.00
C6       0.14415    0.20283    0.07251   1.00
C6       0.16225    0.10630    0.08127   1.00
H2       0.06934    0.09447    0.01507   1.00
C6       0.00854    0.03627    0.04037   1.00
C6       0.04283    0.15664    0.03336   1.00
C6       0.36592    0.34907    -0.00433   1.00
C6       0.39786    0.45902    0.01332   1.00
H2       0.45440    0.40813    0.01366   1.00
H2       0.39940    0.44185    0.05655   1.00
C6       0.39783    0.37790    0.08055   1.00
C6       0.49828    0.45118    0.05835   1.00
H2       0.42319    0.28889    0.05539   1.00
C6       0.36052    0.21529    0.03354   1.00
C6       0.47925    0.31072    0.02759   1.00
H2       0.21699    0.09291    0.00395   1.00
H2       0.13025    0.02833    0.00319   1.00
H2       0.19407    0.00881    0.01010   1.00
H2       0.15649    -0.03434   0.04743   1.00
H2       0.10095    -0.00992   0.05823   1.00
H2       0.08450    -0.04676   0.03397   1.00
H2       0.17200    0.23017    0.08612   1.00
H2       0.14926    0.24151    0.06173   1.00
H2       0.09051    0.17161    0.07666   1.00
H2       0.18938    0.07880    0.07813   1.00
H2       0.18215    0.13249    0.09574   1.00
H2       0.10816    0.06957    0.08340   1.00
H2       0.01073    0.03656    0.05691   1.00
H2       -0.04151   0.02836    0.03596   1.00
H2       0.00976    -0.00817   0.03472   1.00
H2       0.02127    0.15482    0.04831   1.00
H2       0.08249    0.20892    0.03082   1.00
H2       0.00273    0.14543    0.02223   1.00
H2       0.31510    0.34191    -0.00660   1.00
H2       0.39596    0.37554    -0.01774   1.00
H2       0.36179    0.29908    -0.00402   1.00
H2       0.42069    0.48466    -0.00101   1.00
H2       0.34599    0.45008    0.01355   1.00
H2       0.42668    0.49531    0.02530   1.00
H2       0.41497    0.41964    0.09148   1.00
H2       0.34247    0.34700    0.08210   1.00
H2       0.41998    0.34667    0.08493   1.00
H2       0.51750    0.47516    0.04362   1.00
H2       0.51546    0.49231    0.06950   1.00
H2       0.52209    0.42093    0.06218   1.00
H2       0.34297    0.21052    0.01791   1.00
H2       0.38287    0.18265    0.03549   1.00
H2       0.31612    0.19519    0.04334   1.00
H2       0.49895    0.27698    0.03168   1.00
H2       0.47106    0.30700    0.01120   1.00
H2       0.51928    0.36249    0.03114   1.00
C4       0.13980    0.83142    0.00086   1.00
C4       0.16530    0.80606    0.01640   1.00
C3       0.18127    0.87695    -0.01460   1.00
C3       0.23561    0.82845    0.01913   1.00
C3       0.06916    0.81129    0.00081   1.00
C3       0.11839    0.75534    0.03006   1.00
C2       0.08502    0.88307    -0.02944   1.00
C2       0.21294    0.75339    0.04850   1.00
C3       0.15476    0.90239    -0.02927   1.00
C3       0.25876    0.80240    0.03461   1.00
C3       0.04316    0.83652    -0.01435   1.00
C3       0.14302    0.73190    0.04608   1.00
H1       0.23190    0.89279    -0.01571   1.00
H1       0.27211    0.86463    0.01003   1.00
C5       0.02489    0.76586    0.01584   1.00
C5       0.04727    0.72868    0.02778   1.00
H1       0.18730    0.93557    -0.03999   1.00
H1       0.31014    0.82005    0.03574   1.00
H1       -0.00797   0.82016    -0.01453   1.00
H1       0.10918    0.69885    0.05650   1.00
O3       -0.04018   0.75556    0.01780   1.00
O3       0.00074    0.67074    0.03809   1.00
Si1      -0.05516   0.80132    0.03390   1.00
Si1      -0.02147   0.59623    0.02836   1.00
C6       -0.14003   0.77316    0.02644   1.00
C6       -0.05185   0.77230    0.05846   1.00
C6       -0.00274   0.88997    0.03014   1.00
C6       0.01751    0.59326    0.00544   1.00
C6       -0.00106   0.55599    0.04765   1.00
C6       -0.11081   0.55246    0.02560   1.00
C6       -0.15253   0.77254    0.00303   1.00
H2       -0.16606   0.71960    0.03097   1.00
C6       -0.18199   0.80381    0.03628   1.00
H2       -0.06407   0.71997    0.05551   1.00
C6       0.01815    0.80682    0.06984   1.00
C6       -0.10504   0.76688    0.07459   1.00
H2       -0.00667   0.89481    0.01377   1.00
C6       -0.02599   0.93771    0.04021   1.00
C6       0.07551    0.92514    0.03514   1.00
C6       0.01125    0.63179    -0.01338   1.00
C6       0.09300    0.60837    0.00571   1.00
H2       -0.01178   0.53927    0.00149   1.00
H2       0.05457    0.58353    0.04781   1.00
C6       -0.02289   0.56297    0.06965   1.00
C6       -0.02394   0.47898    0.04462   1.00
H2       -0.12982   0.53248    0.04074   1.00
C6       -0.14358   0.59683    0.02024   1.00
C6       -0.14414   0.48957    0.01097   1.00
H2       -0.13450   0.74253    -0.00510   1.00
H2       -0.12639   0.82417    -0.00322   1.00
H2       -0.20687   0.74964    -0.00038   1.00
H2       -0.23589   0.76475    0.03718   1.00
H2       -0.16514   0.82302    0.05154   1.00
H2       -0.17951   0.84558    0.02732   1.00
H2       0.01683    0.77547    0.08264   1.00
H2       0.05970    0.81307    0.06010   1.00
H2       0.03051    0.85664    0.07584   1.00
H2       -0.15720   0.73475    0.06921   1.00
H2       -0.10091   0.74341    0.08863   1.00
H2       -0.09732   0.81718    0.07845   1.00
H2       -0.03478   0.92767    0.05645   1.00
H2       0.01184    0.99171    0.03827   1.00
H2       -0.07222   0.93143    0.03321   1.00
H2       0.08621    0.94077    0.05100   1.00
H2       0.09740    0.89307    0.03211   1.00
H2       0.10387    0.97112    0.02593   1.00
H2       0.04964    0.68574    -0.01315   1.00
H2       0.01874    0.61062    -0.02741   1.00
H2       -0.03874   0.62746    -0.01438   1.00
H2       0.10640    0.59517    -0.00887   1.00
H2       0.12935    0.66196    0.00842   1.00
H2       0.10111    0.57829    0.01713   1.00
H2       0.00186    0.54676    0.08082   1.00
H2       -0.00755   0.61589    0.07319   1.00
H2       -0.07788   0.53197    0.07186   1.00
H2       -0.00893   0.46955    0.02979   1.00
H2       0.00003    0.46252    0.05599   1.00
H2       -0.07910   0.44665    0.04623   1.00
H2       -0.12636   0.62203    0.00558   1.00
H2       -0.19920   0.56652    0.01998   1.00
H2       -0.12995   0.63607    0.03167   1.00
H2       -0.19951   0.46089    0.01294   1.00
H2       -0.13377   0.50534    -0.00490   1.00
H2       -0.12575   0.45417    0.01393   1.00
C4       0.13303    0.30665    0.50136   1.00
C4       0.15838    0.35747    0.51692   1.00
C3       0.06501    0.27455    0.49401   1.00
C3       0.11677    0.37673    0.52794   1.00
C3       0.17743    0.28559    0.49279   1.00
C3       0.22924    0.39144    0.52184   1.00
C2       0.08473    0.20188    0.47059   1.00
C2       0.21323    0.45962    0.54847   1.00
C3       0.04137    0.22333    0.47913   1.00
C3       0.14351    0.42685    0.54315   1.00
C3       0.15296    0.23475    0.47752   1.00
C3       0.25461    0.43969    0.53781   1.00
H1       0.03071    0.28760    0.49920   1.00
H1       0.06573    0.35463    0.52532   1.00
C5       0.24606    0.31566    0.49945   1.00
C5       0.27433    0.37672    0.51096   1.00
H1       -0.00848   0.20160    0.47451   1.00
H1       0.11111    0.43912    0.55049   1.00
H1       0.18591    0.22151    0.47110   1.00
H1       0.30454    0.46035    0.54202   1.00
O3       0.28522    0.28758    0.49369   1.00
O3       0.34422    0.41794    0.51264   1.00
Si1      0.28976    0.23184    0.50834   1.00
Si1      0.38278    0.48581    0.49840   1.00
C6       0.33452    0.20832    0.49127   1.00
C6       0.34079    0.27638    0.52936   1.00
C6       0.20922    0.16156    0.51443   1.00
C6       0.33263    0.50494    0.48209   1.00
C6       0.42448    0.55191    0.51611   1.00
C6       0.44542    0.47915    0.48438   1.00
C6       0.30636    0.19243    0.46902   1.00
H2       0.38386    0.25514    0.49022   1.00
C6       0.35110    0.15069    0.49677   1.00
H2       0.37201    0.32762    0.52320   1.00
C6       0.30512    0.28481    0.54857   1.00
C6       0.39241    0.25545    0.53773   1.00
H2       0.18428    0.14741    0.49962   1.00
C6       0.20766    0.09613    0.52289   1.00
C6       0.15996    0.17199    0.52888   1.00
C6       0.28598    0.44980    0.46626   1.00
C6       0.28914    0.53486    0.49118   1.00
H2       0.37129    0.54703    0.47311   1.00
H2       0.38304    0.55515    0.52347   1.00
C6       0.46300    0.53855    0.53365   1.00
C6       0.47463    0.62473    0.50768   1.00
H2       0.48791    0.49587    0.49497   1.00
C6       0.42758    0.40584    0.47791   1.00
C6       0.47537    0.52491    0.46506   1.00
H2       0.30311    0.23502    0.46247   1.00
H2       0.25555    0.14724    0.46848   1.00
H2       0.33980    0.18347    0.45911   1.00
H2       0.39987    0.16215    0.49007   1.00
H2       0.35467    0.14494    0.51302   1.00
H2       0.31299    0.10102    0.49083   1.00
H2       0.34239    0.32472    0.55852   1.00
H2       0.26786    0.29993    0.54468   1.00
H2       0.27975    0.23769    0.55737   1.00
H2       0.42721    0.25769    0.52591   1.00
H2       0.42446    0.29021    0.54969   1.00
H2       0.36581    0.20409    0.54413   1.00
H2       0.24132    0.10824    0.53599   1.00
H2       0.15636    0.05713    0.52756   1.00
H2       0.22257    0.07183    0.51137   1.00
H2       0.16933    0.16672    0.54484   1.00
H2       0.16357    0.22128    0.52721   1.00
H2       0.10698    0.13355    0.52570   1.00
H2       0.23763    0.41204    0.47292   1.00
H2       0.27395    0.47347    0.45368   1.00
H2       0.31034    0.42317    0.45976   1.00
H2       0.26899    0.55286    0.47908   1.00
H2       0.24559    0.49715    0.49980   1.00
H2       0.31925    0.57867    0.50096   1.00
H2       0.47706    0.57678    0.54561   1.00
H2       0.43086    0.48882    0.54070   1.00
H2       0.50960    0.54057    0.52832   1.00
H2       0.45122    0.63935    0.49569   1.00
H2       0.48949    0.66284    0.51972   1.00
H2       0.52118    0.62795    0.50174   1.00
H2       0.38367    0.38220    0.46779   1.00
H2       0.47047    0.40575    0.47036   1.00
H2       0.41562    0.37368    0.49124   1.00
H2       0.52048    0.52396    0.45958   1.00
H2       0.43824    0.50735    0.45271   1.00
H2       0.49130    0.57808    0.46821   1.00
C4       0.69462    0.82653    0.50174   1.00
C4       0.64365    0.80134    0.51725   1.00
C3       0.74120    0.80262    0.49873   1.00
C3       0.63822    0.75434    0.53242   1.00
C3       0.70048    0.87932    0.48861   1.00
C3       0.59499    0.82386    0.51776   1.00
C2       0.79841    0.88247    0.47067   1.00
C2       0.54009    0.75399    0.54839   1.00
C3       0.79193    0.83005    0.48371   1.00
C3       0.58748    0.73081    0.54745   1.00
C3       0.75118    0.90542    0.47329   1.00
C3       0.54611    0.80177    0.53355   1.00
H1       0.73949    0.76442    0.50732   1.00
H1       0.67120    0.73615    0.53308   1.00
C5       0.65548    0.90548    0.49079   1.00
C5       0.59566    0.86872    0.50266   1.00
H1       0.82450    0.81108    0.48234   1.00
H1       0.58564    0.69639    0.55793   1.00
H1       0.75356    0.94194    0.46362   1.00
H1       0.51444    0.82172    0.53446   1.00
O3       0.66833    0.96363    0.48047   1.00
O3       0.54163    0.88039    0.50048   1.00
Si1      0.71158    1.03795    0.49145   1.00
Si1      0.47614    0.82743    0.48688   1.00
C6       0.72033    1.08812    0.46993   1.00
C6       0.65797    1.04370    0.50977   1.00
C6       0.79182    1.05474    0.50058   1.00
C6       0.47625    0.75576    0.47629   1.00
C6       0.40766    0.79995    0.50388   1.00
C6       0.46553    0.87540    0.46767   1.00
C6       0.74390    1.06841    0.44995   1.00
H2       0.66775    1.07547    0.46713   1.00
C6       0.76276    1.16806    0.47093   1.00
H2       0.60742    1.00841    0.50377   1.00
C6       0.65892    1.01871    0.53183   1.00
C6       0.65982    1.11328    0.51245   1.00
H2       0.81222    1.04059    0.48761   1.00
C6       0.84551    1.13072    0.50558   1.00
C6       0.79548    1.01358    0.51927   1.00
C6       0.53682    0.76852    0.46209   1.00
C6       0.46273    0.69433    0.49029   1.00
H2       0.43148    0.73455    0.46646   1.00
H2       0.41586    0.76823    0.51468   1.00
C6       0.40592    0.85684    0.51693   1.00
C6       0.33415    0.75462    0.49518   1.00
H2       0.43853    0.89793    0.47518   1.00
C6       0.53200    0.93719    0.45918   1.00
C6       0.42133    0.83641    0.44875   1.00
H2       0.71028    1.01486    0.44604   1.00
H2       0.79571    1.07704    0.45141   1.00
H2       0.74298    1.09834    0.43706   1.00
H2       0.74026    1.18996    0.46090   1.00
H2       0.76472    1.18792    0.48607   1.00
H2       0.81531    1.18817    0.46586   1.00
H2       0.61426    1.01128    0.54034   1.00
H2       0.65734    0.96989    0.53197   1.00
H2       0.70412    1.05589    0.54009   1.00
H2       0.64946    1.13076    0.49817   1.00
H2       0.62067    1.10865    0.52310   1.00
H2       0.70914    1.15254    0.51829   1.00
H2       0.82453    1.15292    0.51604   1.00
H2       0.89175    1.13562    0.51245   1.00
H2       0.86270    1.16161    0.49192   1.00
H2       0.79543    1.03734    0.53367   1.00
H2       0.75383    0.96139    0.51986   1.00
H2       0.84261    1.01136    0.51871   1.00
H2       0.58099    0.77573    0.47071   1.00
H2       0.52201    0.72472    0.45212   1.00
H2       0.55272    0.81280    0.45238   1.00
H2       0.45485    0.65058    0.48119   1.00
H2       0.50528    0.70660    0.50041   1.00
H2       0.41687    0.67679    0.49946   1.00
H2       0.36897    0.83407    0.52928   1.00
H2       0.45539    0.89034    0.52395   1.00
H2       0.39169    0.88826    0.50794   1.00
H2       0.32998    0.71206    0.48628   1.00
H2       0.29707    0.73267    0.50753   1.00
H2       0.31902    0.78428    0.48566   1.00
H2       0.56508    0.92140    0.45188   1.00
H2       0.52081    0.96648    0.44823   1.00
H2       0.56052    0.97167    0.47146   1.00
H2       0.41001    0.86980    0.43958   1.00
H2       0.44772    0.81791    0.43902   1.00
H2       0.37246    0.79297    0.45315   1.00
C4       0.17350    0.86804    0.50172   1.00
C4       0.19870    0.84229    0.51723   1.00
C3       0.19817    0.93858    0.49849   1.00
C3       0.24655    0.88403    0.53220   1.00
C3       0.11990    0.82107    0.48881   1.00
C3       0.17529    0.77094    0.51796   1.00
C2       0.11752    0.91591    0.47067   1.00
C2       0.24602    0.78613    0.54839   1.00
C3       0.17073    0.96189    0.48348   1.00
C3       0.27007    0.85685    0.54724   1.00
C3       0.09378    0.84565    0.47350   1.00
C3       0.19740    0.74421    0.53376   1.00
H1       0.23697    0.97509    0.50691   1.00
H1       0.26540    0.93534    0.53270   1.00
C5       0.09294    0.74986    0.49123   1.00
C5       0.12952    0.72652    0.50306   1.00
H1       0.19028    1.01348    0.48195   1.00
H1       0.30512    0.88955    0.55756   1.00
H1       0.05664    0.81143    0.46399   1.00
H1       0.17687    0.69256    0.53484   1.00
O3       0.03415    0.70470    0.48114   1.00
O3       0.11685    0.66042    0.50106   1.00
Si1      -0.03965   0.67497    0.49235   1.00
Si1      0.16868    0.64645    0.48738   1.00
C6       -0.09088   0.63316    0.47105   1.00
C6       -0.04554   0.61596    0.51082   1.00
C6       -0.05498   0.73950    0.50137   1.00
C6       0.24048    0.71727    0.47646   1.00
C6       0.19599    0.60539    0.50441   1.00
C6       0.11946    0.58743    0.46841   1.00
C6       -0.07144   0.67570    0.45092   1.00
H2       -0.07905   0.59264    0.46831   1.00
C6       -0.17074   0.59664    0.47231   1.00
H2       -0.01099   0.59981    0.50478   1.00
C6       -0.01950   0.64256    0.53276   1.00
C6       -0.11551   0.54888    0.51381   1.00
H2       -0.04092   0.77359    0.48830   1.00
C6       -0.13052   0.71840    0.50659   1.00
C6       -0.01274   0.78475    0.51987   1.00
C6       0.22801    0.76509    0.46218   1.00
C6       0.30271    0.76514    0.49021   1.00
H2       0.26079    0.69283    0.46664   1.00
H2       0.22848    0.64553    0.51504   1.00
C6       0.13915    0.54769    0.51773   1.00
C6       0.24020    0.57597    0.49567   1.00
H2       0.09663    0.53816    0.47609   1.00
C6       0.05789    0.59276    0.46005   1.00
C6       0.15733    0.58085    0.44942   1.00
H2       -0.01816   0.69480    0.44685   1.00
H2       -0.07929   0.71939    0.45231   1.00
H2       -0.10210   0.64458    0.43818   1.00
H2       -0.19353   0.55185    0.46243   1.00
H2       -0.19013   0.57950    0.48754   1.00
H2       -0.19040   0.62943    0.46721   1.00
H2       -0.01236   0.60527    0.54135   1.00
H2       0.02966    0.68941    0.53269   1.00
H2       -0.05595   0.65153    0.54109   1.00
H2       -0.13383   0.52055    0.49964   1.00
H2       -0.11103   0.51445    0.52454   1.00
H2       -0.15409   0.55985    0.51972   1.00
H2       -0.15280   0.67564    0.51720   1.00
H2       -0.13449   0.76039    0.51338   1.00
H2       -0.16191   0.70454    0.49303   1.00
H2       -0.03612   0.76168    0.53437   1.00
H2       0.03923    0.79459    0.52031   1.00
H2       -0.00981   0.83442    0.51918   1.00
H2       0.22174    0.80276    0.47072   1.00
H2       0.27152    0.79324    0.45204   1.00
H2       0.18326    0.73679    0.45263   1.00
H2       0.34631    0.80025    0.48092   1.00
H2       0.29139    0.79623    0.50029   1.00
H2       0.32003    0.73669    0.49940   1.00
H2       0.16200    0.53353    0.53005   1.00
H2       0.10643    0.56457    0.52478   1.00
H2       0.10694    0.50184    0.50891   1.00
H2       0.28267    0.61365    0.48659   1.00
H2       0.26223    0.56086    0.50801   1.00
H2       0.20972    0.53092    0.48632   1.00
H2       0.07402    0.64147    0.45260   1.00
H2       0.02778    0.55199    0.44926   1.00
H2       0.02406    0.58777    0.47242   1.00
H2       0.12317    0.53597    0.44043   1.00
H2       0.17600    0.62542    0.43954   1.00
H2       0.20052    0.57489    0.45374   1.00
C4       0.30481    0.14079    0.99806   1.00
C4       0.35716    0.16588    0.98297   1.00
C3       0.29826    0.18294    1.01278   1.00
C3       0.41170    0.23435    0.98224   1.00
C3       0.25664    0.06950    0.99882   1.00
C3       0.35538    0.12052    0.96763   1.00
C2       0.19957    0.08568    1.02872   1.00
C2       0.46193    0.21228    0.95222   1.00
C3       0.24736    0.15615    1.02776   1.00
C3       0.46230    0.25711    0.96718   1.00
C3       0.20488    0.04364    1.01382   1.00
C3       0.40846    0.14375    0.95312   1.00
H1       0.33014    0.23438    1.01300   1.00
H1       0.41651    0.26960    0.99269   1.00
C5       0.26030    0.02454    0.98454   1.00
C5       0.30108    0.05212    0.96694   1.00
H1       0.24543    0.18904    1.03810   1.00
H1       0.50019    0.30734    0.96730   1.00
H1       0.16954    -0.00733   1.01383   1.00
H1       0.40881    0.10960    0.94304   1.00
O3       0.22136    -0.04492   0.98735   1.00
O3       0.29097    0.01154    0.95016   1.00
Si1      0.25354    -0.08563   0.99924   1.00
Si1      0.24750    0.01585    0.93105   1.00
C6       0.17760    -0.16517   1.00090   1.00
C6       0.31269    -0.08974   0.98275   1.00
C6       0.28552    -0.05209   1.02354   1.00
C6       0.21786    0.07467    0.93240   1.00
C6       0.30442    0.03731    0.91063   1.00
C6       0.17877    -0.06707   0.92683   1.00
C6       0.11300    -0.16307   1.00843   1.00
H2       0.16743    -0.18077   0.98502   1.00
C6       0.17583    -0.22675   1.01240   1.00
H2       0.29374    -0.08561   0.96791   1.00
C6       0.38874    -0.03098   0.98359   1.00
C6       0.31604    -0.15709   0.98201   1.00
H2       0.24390    -0.04693   1.03001   1.00
C6       0.29788    -0.09843   1.03857   1.00
C6       0.35169    0.01976    1.02549   1.00
C6       0.17126    0.06890    0.95068   1.00
C6       0.26938    0.15261    0.92946   1.00
H2       0.18511    0.06128    0.91905   1.00
H2       0.34350    0.08989    0.91378   1.00
C6       0.34347    -0.00332   0.90907   1.00
C6       0.27646    0.03715    0.88894   1.00
H2       0.20121    -0.09202   0.91815   1.00
C6       0.14750    -0.11254   0.94601   1.00
C6       0.11702    -0.07511   0.91396   1.00
H2       0.10314    -0.12901   0.99913   1.00
H2       0.11896    -0.14564   1.02415   1.00
H2       0.06731    -0.21346   1.00755   1.00
H2       0.13962    -0.27473   1.00506   1.00
H2       0.22505    -0.22418   1.01267   1.00
H2       0.15897    -0.23048   1.02811   1.00
H2       0.41639    -0.03164   0.97007   1.00
H2       0.39317    0.01912    0.98403   1.00
H2       0.41494    -0.03625   0.99676   1.00
H2       0.26637    -0.20104   0.97846   1.00
H2       0.35082    -0.15494   0.97014   1.00
H2       0.33408    -0.16615   0.99641   1.00
H2       0.33043    -0.11589   1.03175   1.00
H2       0.32210    -0.07178   1.05267   1.00
H2       0.25012    -0.14249   1.04321   1.00
H2       0.39804    0.01626    1.02507   1.00
H2       0.35652    0.05526    1.01372   1.00
H2       0.35159    0.04327    1.03998   1.00
H2       0.20106    0.09473    0.96411   1.00
H2       0.14090    0.09274    0.94694   1.00
H2       0.13558    0.01614    0.95469   1.00
H2       0.24216    0.18091    0.92785   1.00
H2       0.30375    0.17466    0.94230   1.00
H2       0.29999    0.16282    0.91577   1.00
H2       0.38548    0.02115    0.89821   1.00
H2       0.36595    -0.00461   0.92361   1.00
H2       0.31026    -0.05576   0.90409   1.00
H2       0.24998    0.06627    0.88844   1.00
H2       0.31840    0.06071    0.87802   1.00
H2       0.24159    -0.01467   0.88371   1.00
H2       0.12543    -0.09142   0.95642   1.00
H2       0.10801    -0.16423   0.94199   1.00
H2       0.18683    -0.11690   0.95413   1.00
H2       0.08316    -0.12850   0.90983   1.00
H2       0.08682    -0.05788   0.92237   1.00
H2       0.13369    -0.04645   0.89982   1.00
C4       0.82687    0.69535    0.99804   1.00
C4       0.80178    0.64427    0.98256   1.00
C3       0.81180    0.74910    0.99889   1.00
C3       0.76437    0.64537    0.96542   1.00
C3       0.87035    0.69371    1.01343   1.00
C3       0.81430    0.58861    0.98416   1.00
C2       0.88235    0.79864    1.02926   1.00
C2       0.75411    0.53986    0.95168   1.00
C3       0.83906    0.79955    1.01400   1.00
C3       0.74062    0.59429    0.95049   1.00
C3       0.89630    0.74436    1.02876   1.00
C3       0.79245    0.53925    0.96852   1.00
H1       0.78039    0.75303    0.98860   1.00
H1       0.75363    0.68353    0.96320   1.00
C5       0.88740    0.64133    1.01347   1.00
C5       0.84903    0.58275    1.00124   1.00
H1       0.82677    0.83747    1.01376   1.00
H1       0.71333    0.59741    0.93852   1.00
H1       0.92589    0.74145    1.04003   1.00
H1       0.80559    0.50217    0.96924   1.00
O3       0.93795    0.64620    1.02618   1.00
O3       0.84986    0.52316    1.00511   1.00
Si1      1.01624    0.68028    1.01793   1.00
Si1      0.78616    0.46199    1.01744   1.00
C6       1.05462    0.68243    1.04143   1.00
C6       1.01969    0.62134    1.00120   1.00
C6       1.04804    0.76312    1.00798   1.00
C6       0.71751    0.47389    1.02452   1.00
C6       0.75671    0.39249    1.00076   1.00
C6       0.82026    0.44372    1.03898   1.00
C6       1.03303    0.71151    1.05979   1.00
H2       1.03352    0.62830    1.04473   1.00
C6       1.13401    0.71510    1.04335   1.00
H2       0.97728    0.57308    1.00654   1.00
C6       1.00581    0.62554    0.97815   1.00
C6       1.08373    0.61216    1.00182   1.00
H2       1.03364    0.78766    1.01971   1.00
C6       1.12725    0.80831    1.00550   1.00
C6       1.01873    0.77290    0.98743   1.00
C6       0.73347    0.53718    1.03790   1.00
C6       0.66531    0.46868    1.00802   1.00
H2       0.68727    0.42972    1.03420   1.00
H2       0.73362    0.40591    0.98838   1.00
C6       0.81272    0.38111    0.99057   1.00
C6       0.70045    0.32136    1.00878   1.00
H2       0.83904    0.41098    1.03318   1.00
C6       0.88358    0.50532    1.04891   1.00
C6       0.77060    0.40331    1.05680   1.00
H2       0.97776    0.68419    1.06183   1.00
H2       1.04987    0.76552    1.05765   1.00
H2       1.05490    0.70624    1.07399   1.00
H2       1.14620    0.68791    1.05481   1.00
H2       1.15805    0.71348    1.02926   1.00
H2       1.15879    0.76830    1.04821   1.00
H2       0.99506    0.57862    0.97031   1.00
H2       0.96160    0.63160    0.97572   1.00
H2       1.04990    0.66768    0.97077   1.00
H2       1.09229    0.59881    1.01701   1.00
H2       1.07724    0.57063    0.99188   1.00
H2       1.12945    0.65848    0.99685   1.00
H2       1.14784    0.78196    0.99664   1.00
H2       1.14188    0.85676    0.99794   1.00
H2       1.15264    0.82229    1.02014   1.00
H2       1.04568    0.76855    0.97430   1.00
H2       0.96509    0.73661    0.98526   1.00
H2       1.02424    0.82370    0.98688   1.00
H2       0.75053    0.58298    1.02877   1.00
H2       0.68773    0.52866    1.04601   1.00
H2       0.77225    0.54751    1.04929   1.00
H2       0.62108    0.46753    1.01512   1.00
H2       0.68723    0.51189    0.99768   1.00
H2       0.64551    0.42207    0.99908   1.00
H2       0.79089    0.34475    0.97805   1.00
H2       0.85372    0.42846    0.98416   1.00
H2       0.83524    0.36122    1.00127   1.00
H2       0.65799    0.32399    1.01565   1.00
H2       0.67934    0.28473    0.99630   1.00
H2       0.72104    0.30080    1.01994   1.00
H2       0.87196    0.54348    1.05469   1.00
H2       0.90394    0.48909    1.06138   1.00
H2       0.92406    0.52992    1.03778   1.00
H2       0.79531    0.38623    1.06771   1.00
H2       0.75451    0.43484    1.06499   1.00
H2       0.72513    0.35777    1.05141   1.00
C4       0.86803    0.17350    0.99829   1.00
C4       0.84229    0.19871    0.98277   1.00
C3       0.93857    0.19837    1.00157   1.00
C3       0.88406    0.24677    0.96785   1.00
C3       0.82104    0.11970    1.01114   1.00
C3       0.77089    0.17508    0.98199   1.00
C2       0.91590    0.11751    1.02934   1.00
C2       0.78614    0.24603    0.95160   1.00
C3       0.96188    0.17092    1.01658   1.00
C3       0.85689    0.27028    0.95281   1.00
C3       0.84563    0.09358    1.02644   1.00
C3       0.74418    0.19720    0.96619   1.00
H1       0.97509    0.23731    0.99319   1.00
H1       0.93540    0.26579    0.96740   1.00
C5       0.74982    0.09255    1.00867   1.00
C5       0.72642    0.12908    0.99684   1.00
H1       1.01348    0.19062    1.01815   1.00
H1       0.88962    0.30549    0.94253   1.00
H1       0.81140    0.05629    1.03591   1.00
H1       0.69252    0.17651    0.96507   1.00
O3       0.70471    0.03360    1.01869   1.00
O3       0.66022    0.11617    0.99879   1.00
Si1      0.67531    -0.04006   1.00742   1.00
Si1      0.64590    0.16772    1.01250   1.00
C6       0.63342    -0.09156   1.02867   1.00
C6       0.61639    -0.04599   0.98891   1.00
C6       0.74011    -0.05503   0.99843   1.00
C6       0.71647    0.23954    1.02349   1.00
C6       0.60482    0.19497    0.99546   1.00
C6       0.58677    0.11818    1.03141   1.00
C6       0.67576    -0.07219   1.04883   1.00
H2       0.59274    -0.07994   1.03140   1.00
C6       0.59714    -0.17139   1.02734   1.00
H2       0.60002    -0.01162   0.99497   1.00
C6       0.64316    -0.01969   0.96700   1.00
C6       0.54948    -0.11605   0.98584   1.00
H2       0.77408    -0.04099   1.01153   1.00
C6       0.71931    -0.13046   0.99315   1.00
C6       0.78546    -0.01252   0.97999   1.00
C6       0.76429    0.22713    1.03779   1.00
C6       0.76433    0.30196    1.00981   1.00
H2       0.69181    0.25963    1.03331   1.00
H2       0.64502    0.22766    0.98487   1.00
C6       0.54736    0.13815    0.98208   1.00
C6       0.57509    0.23891    1.00420   1.00
H2       0.53757    0.09528    1.02368   1.00
C6       0.59226    0.05666    1.03973   1.00
C6       0.57985    0.15577    1.05041   1.00
H2       0.69466    -0.01898   1.05295   1.00
H2       0.71958    -0.07985   1.04747   1.00
H2       0.64458    -0.10303   1.06154   1.00
H2       0.55226    -0.19441   1.03719   1.00
H2       0.58019    -0.19066   1.01209   1.00
H2       0.63002    -0.19093   1.03245   1.00
H2       0.60585    -0.01262   0.95840   1.00
H2       0.68991    0.02956    0.96713   1.00
H2       0.65236    -0.05595   0.95866   1.00
H2       0.52103    -0.13458   0.99999   1.00
H2       0.51507    -0.11161   0.97510   1.00
H2       0.56068    -0.15445   0.97993   1.00
H2       0.67666    -0.15275   0.98251   1.00
H2       0.76147    -0.13419   0.98639   1.00
H2       0.70542    -0.16197   1.00669   1.00
H2       0.76258    -0.03580   0.96545   1.00
H2       0.79513    0.03939    0.97958   1.00
H2       0.83521    -0.00941   0.98070   1.00
H2       0.80214    0.22111    1.02927   1.00
H2       0.79223    0.27057    1.04797   1.00
H2       0.73602    0.18227    1.04731   1.00
H2       0.79925    0.34553    1.01914   1.00
H2       0.79562    0.29088    0.99974   1.00
H2       0.73585    0.31924    1.00061   1.00
H2       0.53320    0.16103    0.96975   1.00
H2       0.56446    0.10563    0.97501   1.00
H2       0.50146    0.10574    0.99085   1.00
H2       0.61260    0.28135    1.01332   1.00
H2       0.55999    0.26095    0.99187   1.00
H2       0.52998    0.20822    1.01351   1.00
H2       0.64093    0.07288    1.04722   1.00
H2       0.55143    0.02636    1.05048   1.00
H2       0.58751    0.02301    1.02734   1.00
H2       0.53492    0.12142    1.05936   1.00
H2       0.62433    0.17448    1.06032   1.00
H2       0.57375    0.19890    1.04611   1.00
C4       0.52766    1.02472    0.83254   1.00
C4       0.50192    0.97377    0.81702   1.00
C3       0.48985    1.02205    0.85004   1.00
C3       0.43381    0.91846    0.81652   1.00
C3       0.59452    1.08233    0.83045   1.00
C3       0.54629    0.97766    0.80105   1.00
C2       0.58206    1.13149    0.86273   1.00
C2       0.45332    0.87367    0.78487   1.00
C3       0.51610    1.07412    0.86467   1.00
C3       0.41032    0.86941    0.80100   1.00
C3       0.62057    1.13369    0.84557   1.00
C3       0.52080    0.92937    0.78509   1.00
H1       0.44221    0.98208    0.85270   1.00
H1       0.39914    0.91241    0.82735   1.00
C5       0.63503    1.08811    0.81332   1.00
C5       0.61563    1.02996    0.80097   1.00
H1       0.48621    1.06966    0.87693   1.00
H1       0.36072    0.83020    0.80152   1.00
H1       0.66931    1.17376    0.84415   1.00
H1       0.55198    0.93535    0.77310   1.00
O3       0.69438    1.14855    0.80964   1.00
O3       0.66233    1.02704    0.78811   1.00
Si1      0.69322    1.20541    0.79467   1.00
Si1      0.69879    0.98383    0.79515   1.00
C6       0.77748    1.27130    0.79936   1.00
C6       0.68400    1.17460    0.76964   1.00
C6       0.63329    1.22953    0.80204   1.00
C6       0.67443    0.94022    0.81860   1.00
C6       0.67837    0.92471    0.77540   1.00
C6       0.78752    1.04021    0.79466   1.00
C6       0.79927    1.28510    0.82222   1.00
H2       0.80760    1.25059    0.79280   1.00
C6       0.80585    1.34370    0.78955   1.00
H2       0.70483    1.14046    0.77081   1.00
C6       0.61033    1.13025    0.76091   1.00
C6       0.72554    1.22613    0.75234   1.00
H2       0.64335    1.23880    0.81828   1.00
C6       0.64194    1.29730    0.79290   1.00
C6       0.55494    1.17718    0.79983   1.00
C6       0.68219    0.98257    0.83816   1.00
C6       0.60394    0.87285    0.82045   1.00
H2       0.71134    0.92295    0.82035   1.00
H2       0.62377    0.88992    0.77725   1.00
C6       0.68705    0.95358    0.75334   1.00
C6       0.71285    0.87969    0.77572   1.00
H2       0.80112    1.04192    0.77870   1.00
C6       0.81216    1.11576    0.80047   1.00
C6       0.83428    1.01965    0.80662   1.00
H2       0.79158    1.23892    0.82983   1.00
H2       0.77014    1.30403    0.83043   1.00
H2       0.85341    1.32283    0.82374   1.00
H2       0.86029    1.36615    0.78636   1.00
H2       0.78075    1.34238    0.77537   1.00
H2       0.80081    1.37920    0.79964   1.00
H2       0.61091    1.10278    0.74733   1.00
H2       0.57628    1.09170    0.77164   1.00
H2       0.58842    1.16184    0.75665   1.00
H2       0.78009    1.25324    0.75559   1.00
H2       0.71938    1.19988    0.73789   1.00
H2       0.70868    1.26321    0.75010   1.00
H2       0.64424    1.29700    0.77636   1.00
H2       0.59998    1.30565    0.79717   1.00
H2       0.68768    1.34151    0.79861   1.00
H2       0.53569    1.17921    0.78482   1.00
H2       0.54182    1.12477    0.80241   1.00
H2       0.52605    1.18873    0.81086   1.00
H2       0.63876    0.99019    0.84030   1.00
H2       0.68516    0.95594    0.85162   1.00
H2       0.72831    1.03236    0.83791   1.00
H2       0.60054    0.84711    0.83480   1.00
H2       0.56130    0.88225    0.82008   1.00
H2       0.59645    0.83646    0.80849   1.00
H2       0.66244    0.91188    0.74239   1.00
H2       0.66305    0.98487    0.75167   1.00
H2       0.74059    0.98445    0.74906   1.00
H2       0.70751    0.85563    0.79047   1.00
H2       0.68889    0.83860    0.76455   1.00
H2       0.76703    0.90957    0.77200   1.00
H2       0.79911    1.12068    0.81606   1.00
H2       0.86725    1.14803    0.79864   1.00
H2       0.78842    1.13619    0.79057   1.00
H2       0.88789    1.05303    0.80264   1.00
H2       0.82947    1.02343    0.82300   1.00
H2       0.82218    0.96774    0.80311   1.00
C4       -0.02495   0.50191    0.83247   1.00
C4       0.02591    0.52727    0.81693   1.00
C3       -0.02901   0.45638    0.84793   1.00
C3       0.07384    0.50489    0.81420   1.00
C3       -0.07547   0.52203    0.83252   1.00
C3       0.02972    0.57798    0.80327   1.00
C2       -0.13138   0.45026    0.86277   1.00
C2       0.12622    0.57994    0.78483   1.00
C3       -0.08096   0.43095    0.86260   1.00
C3       0.12303    0.53094    0.79872   1.00
C3       -0.12670   0.49680    0.84767   1.00
C3       0.07778    0.60142    0.78724   1.00
H1       0.00579    0.44056    0.84904   1.00
H1       0.07415    0.46871    0.82330   1.00
C5       -0.07431   0.56745    0.81749   1.00
C5       -0.01476   0.60463    0.80554   1.00
H1       -0.08160   0.39777    0.87333   1.00
H1       0.15676    0.51329    0.79759   1.00
H1       -0.16147   0.51316    0.84786   1.00
H1       0.07699    0.63446    0.77683   1.00
O3       -0.12908   0.57775    0.81552   1.00
O3       -0.00335   0.66257    0.79524   1.00
Si1      -0.18982   0.53198    0.79943   1.00
Si1      0.04894    0.73708    0.80496   1.00
C6       -0.24654   0.56013    0.80688   1.00
C6       -0.15750   0.56099    0.77487   1.00
C6       -0.22604   0.44332    0.80319   1.00
C6       0.09090    0.74007    0.82788   1.00
C6       0.10960    0.77733    0.78567   1.00
C6       0.00336    0.78085    0.80772   1.00
C6       -0.25842   0.56076    0.83029   1.00
H2       -0.21902   0.61369    0.80235   1.00
C6       -0.31916   0.52947    0.79705   1.00
H2       -0.11739   0.61332    0.77781   1.00
C6       -0.12201   0.52647    0.76349   1.00
C6       -0.20527   0.56640    0.75873   1.00
H2       -0.23482   0.43849    0.81956   1.00
C6       -0.29703   0.39558    0.79312   1.00
C6       -0.18296   0.40817    0.79819   1.00
C6       0.04611    0.70154    0.84670   1.00
C6       0.15129    0.72497    0.82761   1.00
H2       0.11559    0.79406    0.83183   1.00
H2       0.13769    0.74979    0.78551   1.00
C6       0.08078    0.77033    0.76367   1.00
C6       0.16371    0.85433    0.78870   1.00
H2       0.00433    0.80082    0.79258   1.00
C6       -0.07377   0.73647    0.81308   1.00
C6       0.03292    0.84374    0.82235   1.00
H2       -0.21039   0.59077    0.83843   1.00
H2       -0.28390   0.50913    0.83654   1.00
H2       -0.28986   0.58366    0.83370   1.00
H2       -0.33399   0.56853    0.79614   1.00
H2       -0.32150   0.51026    0.78179   1.00
H2       -0.35844   0.48770    0.80600   1.00
H2       -0.09199   0.55782    0.75068   1.00
H2       -0.08671   0.52023    0.77322   1.00
H2       -0.15947   0.47665    0.75749   1.00
H2       -0.22530   0.59853    0.76411   1.00
H2       -0.17766   0.58987    0.74470   1.00
H2       -0.24784   0.51610    0.75487   1.00
H2       -0.29579   0.40561    0.77688   1.00
H2       -0.31320   0.34158    0.79506   1.00
H2       -0.33698   0.40186    0.80012   1.00
H2       -0.18789   0.39253    0.78233   1.00
H2       -0.12899   0.44025    0.80122   1.00
H2       -0.20057   0.36219    0.80741   1.00
H2       0.03056    0.64760    0.84647   1.00
H2       0.07477    0.72272    0.86073   1.00
H2       0.00044    0.70586    0.84770   1.00
H2       0.17788    0.73817    0.84220   1.00
H2       0.13404    0.67138    0.82491   1.00
H2       0.18947    0.75505    0.81620   1.00
H2       0.12175    0.78655    0.75250   1.00
H2       0.04321    0.71741    0.76013   1.00
H2       0.05678    0.80132    0.76146   1.00
H2       0.18816    0.86378    0.80353   1.00
H2       0.20415    0.87080    0.77733   1.00
H2       0.14088    0.88666    0.78709   1.00
H2       -0.08175   0.71128    0.82774   1.00
H2       -0.09909   0.76678    0.81333   1.00
H2       -0.09938   0.69723    0.80165   1.00
H2       0.00622    0.87242    0.82038   1.00
H2       0.02752    0.82798    0.83822   1.00
H2       0.08671    0.87915    0.81938   1.00
C4       0.49807    0.47312    0.83247   1.00
C4       0.47271    0.49862    0.81693   1.00
C3       0.54334    0.51451    0.84799   1.00
C3       0.49486    0.56890    0.81427   1.00
C3       0.47821    0.40254    0.83246   1.00
C3       0.42224    0.45175    0.80321   1.00
C2       0.54973    0.41834    0.86276   1.00
C2       0.42007    0.54628    0.78484   1.00
C3       0.56879    0.48801    0.86266   1.00
C3       0.46883    0.59206    0.79879   1.00
C3       0.50344    0.37653    0.84762   1.00
C3       0.39882    0.47639    0.78719   1.00
H1       0.55897    0.56509    0.84914   1.00
H1       0.53086    0.60537    0.82342   1.00
C5       0.43305    0.35834    0.81737   1.00
C5       0.39582    0.38064    0.80542   1.00
H1       0.60177    0.52050    0.87343   1.00
H1       0.48630    0.64341    0.79770   1.00
H1       0.48727    0.32545    0.84775   1.00
H1       0.36597    0.44260    0.77672   1.00
O3       0.42303    0.29339    0.81536   1.00
O3       0.33807    0.33406    0.79504   1.00
Si1      0.46914    0.27883    0.79928   1.00
Si1      0.26338    0.31146    0.80471   1.00
C6       0.44122    0.19395    0.80667   1.00
C6       0.44033    0.28229    0.77471   1.00
C6       0.55772    0.33149    0.80314   1.00
C6       0.25997    0.35008    0.82765   1.00
C6       0.22318    0.33187    0.78541   1.00
C6       0.21989    0.22209    0.80738   1.00
C6       0.44039    0.18120    0.83007   1.00
H2       0.38771    0.16778    0.80208   1.00
C6       0.47224    0.15233    0.79682   1.00
H2       0.38790    0.26983    0.77761   1.00
C6       0.47474    0.35242    0.76340   1.00
C6       0.43532    0.22938    0.75853   1.00
H2       0.56240    0.32740    0.81951   1.00
C6       0.60578    0.30862    0.79308   1.00
C6       0.59267    0.40978    0.79821   1.00
C6       0.29840    0.34379    0.84649   1.00
C6       0.27478    0.42547    0.82744   1.00
H2       0.20595    0.32057    0.83154   1.00
H2       0.25053    0.38750    0.78530   1.00
C6       0.23053    0.31037    0.76339   1.00
C6       0.14607    0.30866    0.78836   1.00
H2       0.20012    0.20321    0.79221   1.00
C6       0.26444    0.18954    0.81274   1.00
C6       0.15684    0.18839    0.82194   1.00
H2       0.41014    0.19896    0.83819   1.00
H2       0.49194    0.20745    0.83637   1.00
H2       0.41764    0.12685    0.83342   1.00
H2       0.43334    0.09839    0.79585   1.00
H2       0.49159    0.16941    0.78158   1.00
H2       0.51399    0.15489    0.80580   1.00
H2       0.44347    0.35110    0.75057   1.00
H2       0.48070    0.39379    0.77316   1.00
H2       0.52467    0.36503    0.75744   1.00
H2       0.40328    0.17713    0.76385   1.00
H2       0.41193    0.23356    0.74449   1.00
H2       0.48573    0.23735    0.75471   1.00
H2       0.59594    0.29999    0.77683   1.00
H2       0.65971    0.34659    0.79508   1.00
H2       0.59961    0.26239    0.80004   1.00
H2       0.60846    0.42070    0.78237   1.00
H2       0.56039    0.43144    0.80123   1.00
H2       0.63852    0.43818    0.80748   1.00
H2       0.35230    0.38234    0.84632   1.00
H2       0.27699    0.35101    0.86051   1.00
H2       0.29428    0.29388    0.84745   1.00
H2       0.26133    0.43862    0.84203   1.00
H2       0.32836    0.46201    0.82479   1.00
H2       0.24473    0.43356    0.81601   1.00
H2       0.21429    0.33512    0.75223   1.00
H2       0.28353    0.32596    0.75990   1.00
H2       0.19973    0.25539    0.76113   1.00
H2       0.13638    0.32342    0.80320   1.00
H2       0.12959    0.33264    0.77700   1.00
H2       0.11393    0.25349    0.78670   1.00
H2       0.28945    0.20666    0.82743   1.00
H2       0.23431    0.13390    0.81294   1.00
H2       0.30383    0.20344    0.80135   1.00
H2       0.12836    0.13304    0.81992   1.00
H2       0.17242    0.19863    0.83783   1.00
H2       0.12131    0.20661    0.81897   1.00
C4       0.36338    0.20205    0.33570   1.00
C4       0.31084    0.17581    0.35074   1.00
C3       0.38678    0.26553    0.32574   1.00
C3       0.27226    0.20735    0.35598   1.00
C3       0.39388    0.16257    0.32994   1.00
C3       0.29564    0.11473    0.36127   1.00
C2       0.46748    0.25000    0.30472   1.00
C2       0.20436    0.11870    0.38100   1.00
C3       0.43711    0.28871    0.31060   1.00
C3       0.22092    0.17996    0.37083   1.00
C3       0.44548    0.18744    0.31490   1.00
C3       0.24175    0.08642    0.37556   1.00
H1       0.36811    0.29691    0.32926   1.00
H1       0.28003    0.25091    0.34908   1.00
C5       0.37284    0.09865    0.33931   1.00
C5       0.33379    0.08186    0.35739   1.00
H1       0.45164    0.33481    0.30383   1.00
H1       0.19509    0.20530    0.37412   1.00
H1       0.46822    0.15944    0.31133   1.00
H1       0.22862    0.04041    0.38202   1.00
O3       0.39386    0.05581    0.33143   1.00
O3       0.32933    0.03113    0.37006   1.00
Si1      0.34583    -0.00283   0.31506   1.00
Si1      0.37694    0.05277    0.39034   1.00
C6       0.40490    -0.02905   0.30863   1.00
C6       0.27576    -0.06717   0.32846   1.00
C6       0.32443    0.02991    0.29375   1.00
C6       0.42997    0.14054    0.39560   1.00
C6       0.31732    0.01446    0.40999   1.00
C6       0.42597    0.01222    0.38899   1.00
C6       0.47919    0.02955    0.30383   1.00
H2       0.40894    -0.05188   0.32277   1.00
C6       0.38800    -0.08449   0.29185   1.00
H2       0.29637    -0.06093   0.34377   1.00
C6       0.21001    -0.06138   0.33054   1.00
C6       0.24951    -0.14339   0.32272   1.00
H2       0.37378    0.07320    0.28946   1.00
C6       0.29721    -0.01683   0.27452   1.00
C6       0.27427    0.05846    0.29633   1.00
C6       0.48291    0.18605    0.37912   1.00
C6       0.39762    0.18277    0.40396   1.00
H2       0.46045    0.13973    0.40831   1.00
H2       0.29135    0.04405    0.41056   1.00
C6       0.25974    -0.06105   0.40632   1.00
C6       0.34568    0.01706    0.43180   1.00
H2       0.39127    -0.03964   0.39420   1.00
C6       0.44861    0.00365    0.36737   1.00
C6       0.49086    0.03997    0.40274   1.00
H2       0.50030    0.06601    0.31632   1.00
H2       0.48046    0.05746    0.29016   1.00
H2       0.51362    0.00939    0.30154   1.00
H2       0.41170    -0.11493   0.29565   1.00
H2       0.33362    -0.11941   0.29012   1.00
H2       0.40787    -0.06192   0.27699   1.00
H2       0.17687    -0.09513   0.34251   1.00
H2       0.22176    -0.01011   0.33467   1.00
H2       0.18066    -0.07589   0.31647   1.00
H2       0.29018    -0.15581   0.32373   1.00
H2       0.20953    -0.17816   0.33312   1.00
H2       0.22823    -0.15466   0.30741   1.00
H2       0.25392    -0.06675   0.27830   1.00
H2       0.28082    0.00559    0.26264   1.00
H2       0.33684    -0.02375   0.26758   1.00
H2       0.22101    0.01858    0.29479   1.00
H2       0.27903    0.08302    0.31081   1.00
H2       0.28422    0.09658    0.28462   1.00
H2       0.45989    0.20271    0.36761   1.00
H2       0.52441    0.23206    0.38601   1.00
H2       0.50598    0.15984    0.37155   1.00
H2       0.43737    0.23303    0.40912   1.00
H2       0.36812    0.19129    0.39250   1.00
H2       0.36474    0.15837    0.41701   1.00
H2       0.21921    -0.07631   0.41759   1.00
H2       0.23609    -0.06717   0.39144   1.00
H2       0.27892    -0.09660   0.40733   1.00
H2       0.38503    0.06860    0.43594   1.00
H2       0.30490    0.00080    0.44304   1.00
H2       0.36689    -0.01676   0.43316   1.00
H2       0.48186    0.05258    0.36012   1.00
H2       0.47522    -0.02541   0.36775   1.00
H2       0.40412    -0.02436   0.35778   1.00
H2       0.51057    0.00464    0.40287   1.00
H2       0.53167    0.08921    0.39734   1.00
H2       0.47971    0.04594    0.41845   1.00
C4       0.83451    0.63459    0.33631   1.00
C4       0.86170    0.68702    0.35138   1.00
C3       0.84196    0.57597    0.33693   1.00
C3       0.90423    0.68919    0.36754   1.00
C3       0.79866    0.64112    0.31944   1.00
C3       0.84572    0.74047    0.35045   1.00
C2       0.78095    0.53254    0.30472   1.00
C2       0.91593    0.79562    0.38100   1.00
C3       0.81628    0.52653    0.32152   1.00
C3       0.93009    0.74163    0.38206   1.00
C3       0.77203    0.59003    0.30425   1.00
C3       0.87468    0.79438    0.36472   1.00
H1       0.86606    0.56737    0.34863   1.00
H1       0.91801    0.65298    0.36917   1.00
C5       0.78939    0.69847    0.31791   1.00
C5       0.80149    0.74026    0.33521   1.00
H1       0.82365    0.48546    0.32271   1.00
H1       0.96010    0.74024    0.39350   1.00
H1       0.74479    0.59445    0.29253   1.00
H1       0.86629    0.83449    0.36309   1.00
O3       0.76508    0.71038    0.30012   1.00
O3       0.77471    0.78324    0.33636   1.00
Si1      0.81853    0.76059    0.28293   1.00
Si1      0.70566    0.75949    0.34966   1.00
C6       0.75791    0.74420    0.26372   1.00
C6       0.85470    0.84486    0.29201   1.00
C6       0.87791    0.73606    0.27527   1.00
C6       0.67002    0.68088    0.36273   1.00
C6       0.73065    0.82614    0.36721   1.00
C6       0.64463    0.76053    0.33333   1.00
C6       0.70458    0.66720    0.25984   1.00
H2       0.72870    0.76616    0.27014   1.00
C6       0.78061    0.77684    0.24209   1.00
H2       0.81546    0.84090    0.30244   1.00
C6       0.92180    0.87471    0.30478   1.00
C6       0.86667    0.90267    0.27671   1.00
H2       0.84519    0.68139    0.27264   1.00
C6       0.91703    0.76657    0.25489   1.00
C6       0.93497    0.74404    0.29046   1.00
C6       0.64999    0.61499    0.35014   1.00
C6       0.70524    0.67523    0.38251   1.00
H2       0.62182    0.67487    0.36820   1.00
H2       0.76559    0.82030    0.37730   1.00
C6       0.77260    0.90018    0.35847   1.00
C6       0.67392    0.82499    0.38101   1.00
H2       0.65844    0.81412    0.33283   1.00
C6       0.64654    0.74067    0.31079   1.00
C6       0.56793    0.72011    0.33991   1.00
H2       0.67742    0.64179    0.27372   1.00
H2       0.72919    0.63970    0.25398   1.00
H2       0.66592    0.66172    0.24888   1.00
H2       0.74215    0.78722    0.23571   1.00
H2       0.82878    0.82465    0.24223   1.00
H2       0.78592    0.74288    0.23142   1.00
H2       0.93064    0.92041    0.31299   1.00
H2       0.91951    0.83891    0.31619   1.00
H2       0.96604    0.88907    0.29510   1.00
H2       0.81958    0.89137    0.26896   1.00
H2       0.88432    0.95134    0.28449   1.00
H2       0.90512    0.91018    0.26542   1.00
H2       0.94217    0.82217    0.25492   1.00
H2       0.95599    0.75241    0.25210   1.00
H2       0.88292    0.74701    0.24194   1.00
H2       0.98027    0.79460    0.28963   1.00
H2       0.91864    0.73557    0.30615   1.00
H2       0.95109    0.70707    0.28683   1.00
H2       0.69361    0.60800    0.34754   1.00
H2       0.61177    0.56981    0.35824   1.00
H2       0.62809    0.61546    0.33548   1.00
H2       0.67233    0.62704    0.39030   1.00
H2       0.75309    0.67665    0.37937   1.00
H2       0.71519    0.71554    0.39335   1.00
H2       0.79549    0.93722    0.37079   1.00
H2       0.81449    0.90585    0.34887   1.00
H2       0.74091    0.91420    0.34954   1.00
H2       0.64313    0.77551    0.38828   1.00
H2       0.69681    0.86277    0.39315   1.00
H2       0.64018    0.83714    0.37239   1.00
H2       0.63599    0.68832    0.30930   1.00
H2       0.60989    0.74648    0.30147   1.00
H2       0.69667    0.77402    0.30442   1.00
H2       0.53688    0.73314    0.33023   1.00
H2       0.54727    0.66508    0.33882   1.00
H2       0.56097    0.73212    0.35543   1.00
C4       0.79986    0.16520    0.33630   1.00
C4       0.82516    0.13805    0.35136   1.00
C3       0.73258    0.15472    0.33637   1.00
C3       0.78400    0.09270    0.36691   1.00
C3       0.84349    0.20422    0.32000   1.00
C3       0.89550    0.15703    0.35106   1.00
C2       0.75148    0.21897    0.30473   1.00
C2       0.87982    0.08415    0.38099   1.00
C3       0.70889    0.18052    0.32097   1.00
C3       0.81067    0.06698    0.38143   1.00
C3       0.81903    0.23088    0.30482   1.00
C3       0.92070    0.12825    0.36531   1.00
H1       0.69888    0.12825    0.34765   1.00
H1       0.73334    0.07669    0.36806   1.00
C5       0.91137    0.21661    0.31903   1.00
C5       0.94022    0.20411    0.33646   1.00
H1       0.65957    0.17089    0.32174   1.00
H1       0.77864    0.03483    0.39243   1.00
H1       0.85150    0.26037    0.29354   1.00
H1       0.97010    0.13893    0.36409   1.00
O3       0.94937    0.24420    0.30170   1.00
O3       1.01013    0.23338    0.33831   1.00
Si1      0.95071    0.19405    0.28413   1.00
Si1      1.05151    0.30121    0.35242   1.00
C6       0.99533    0.25759    0.26569   1.00
C6       1.00056    0.15997    0.29332   1.00
C6       0.86870    0.13313    0.27545   1.00
C6       1.00427    0.33231    0.36540   1.00
C6       1.09321    0.27668    0.37009   1.00
C6       1.11401    0.36565    0.33698   1.00
C6       0.96901    0.30893    0.26200   1.00
H2       1.04547    0.28771    0.27269   1.00
C6       1.00920    0.23858    0.24400   1.00
H2       1.03348    0.19862    0.30428   1.00
C6       0.96417    0.09123    0.30535   1.00
C6       1.04986    0.15235    0.27830   1.00
H2       0.84498    0.16429    0.27288   1.00
C6       0.86424    0.09707    0.25476   1.00
C6       0.81943    0.07331    0.28986   1.00
C6       0.95792    0.35120    0.35260   1.00
C6       0.96179    0.29362    0.38461   1.00
H2       1.04443    0.38063    0.37151   1.00
H2       1.05198    0.23946    0.37963   1.00
C6       1.12911    0.23838    0.36132   1.00
C6       1.14564    0.33293    0.38468   1.00
H2       1.15542    0.35414    0.33669   1.00
C6       1.09455    0.36551    0.31429   1.00
C6       1.14661    0.44133    0.34435   1.00
H2       0.96781    0.33378    0.27607   1.00
H2       0.91762    0.28318    0.25558   1.00
H2       1.00241    0.34953    0.25156   1.00
H2       1.05807    0.27918    0.23825   1.00
H2       1.01114    0.19159    0.24381   1.00
H2       0.97060    0.23285    0.23300   1.00
H2       1.00130    0.08336    0.31376   1.00
H2       0.92841    0.09048    0.31651   1.00
H2       0.93692    0.04788    0.29515   1.00
H2       1.08512    0.20089    0.27115   1.00
H2       1.08150    0.13567    0.28619   1.00
H2       1.02144    0.11478    0.26652   1.00
H2       0.89661    0.07401    0.25484   1.00
H2       0.81213    0.05692    0.25130   1.00
H2       0.87904    0.13260    0.24216   1.00
H2       0.82710    0.02951    0.28877   1.00
H2       0.82479    0.08769    0.30571   1.00
H2       0.76636    0.05552    0.28573   1.00
H2       0.90859    0.30660    0.34933   1.00
H2       0.94797    0.38713    0.36091   1.00
H2       0.98150    0.37540    0.33828   1.00
H2       0.94363    0.32402    0.39250   1.00
H2       0.91700    0.24516    0.38080   1.00
H2       0.99201    0.28404    0.39560   1.00
H2       1.14320    0.21524    0.37358   1.00
H2       1.09526    0.19701    0.35117   1.00
H2       1.17540    0.27255    0.35296   1.00
H2       1.12416    0.36117    0.39202   1.00
H2       1.16051    0.30984    0.39677   1.00
H2       1.19198    0.36906    0.37664   1.00
H2       1.05147    0.37399    0.31255   1.00
H2       1.13732    0.40439    0.30554   1.00
H2       1.08059    0.31663    0.30746   1.00
H2       1.19135    0.47487    0.33522   1.00
H2       1.11059    0.45997    0.34315   1.00
H2       1.16379    0.44712    0.36005   1.00
C4       0.80189    0.64135    0.83429   1.00
C4       0.82669    0.69216    0.84984   1.00
C3       0.74836    0.62990    0.82077   1.00
C3       0.79642    0.73226    0.85463   1.00
C3       0.83117    0.59861    0.83218   1.00
C3       0.88510    0.70416    0.86133   1.00
C2       0.75234    0.53533    0.80388   1.00
C2       0.87896    0.79283    0.88184   1.00
C3       0.72397    0.57812    0.80606   1.00
C3       0.82219    0.78166    0.87006   1.00
C3       0.80671    0.54749    0.81699   1.00
C3       0.90848    0.75212    0.87738   1.00
H1       0.72567    0.65900    0.82118   1.00
H1       0.75451    0.72648    0.84714   1.00
C5       0.88488    0.60739    0.84520   1.00
C5       0.91954    0.66790    0.85689   1.00
H1       0.68480    0.57191    0.79681   1.00
H1       0.79857    0.80956    0.87273   1.00
H1       0.82948    0.51847    0.81529   1.00
H1       0.94762    0.75701    0.88630   1.00
O3       0.90514    0.55925    0.84541   1.00
O3       0.98319    0.68787    0.86493   1.00
Si1      0.87203    0.49710    0.86188   1.00
Si1      1.05055    0.74713    0.85336   1.00
C6       0.90804    0.44979    0.85193   1.00
C6       0.90698    0.53189    0.88578   1.00
C6       0.78207    0.44980    0.86104   1.00
C6       1.03858    0.78513    0.83149   1.00
C6       1.09103    0.80935    0.87224   1.00
C6       1.10317    0.71260    0.84769   1.00
C6       0.90181    0.43840    0.82840   1.00
H2       0.96235    0.48356    0.85482   1.00
C6       0.89051    0.37907    0.86127   1.00
H2       0.95523    0.57670    0.88160   1.00
C6       0.86900    0.55898    0.89939   1.00
C6       0.92625    0.48975    0.90043   1.00
H2       0.77219    0.44057    0.84479   1.00
C6       0.74622    0.37783    0.87137   1.00
C6       0.73983    0.48352    0.86852   1.00
C6       0.99761    0.73764    0.81339   1.00
C6       1.01318    0.83767    0.83384   1.00
H2       1.09061    0.81615    0.82587   1.00
H2       1.05744    0.83051    0.87424   1.00
C6       1.09635    0.78264    0.89369   1.00
C6       1.16327    0.87086    0.86726   1.00
H2       1.12991    0.71712    0.86189   1.00
C6       1.06608    0.63513    0.84242   1.00
C6       1.15991    0.74916    0.83121   1.00
H2       0.92315    0.48669    0.82020   1.00
H2       0.84860    0.40674    0.82378   1.00
H2       0.92980    0.41336    0.82330   1.00
H2       0.93468    0.37186    0.86016   1.00
H2       0.87617    0.37429    0.87717   1.00
H2       0.84892    0.33636    0.85322   1.00
H2       0.90240    0.59170    0.91148   1.00
H2       0.85320    0.58982    0.89083   1.00
H2       0.82416    0.51707    0.90656   1.00
H2       0.96153    0.47652    0.89326   1.00
H2       0.95212    0.51905    0.91402   1.00
H2       0.88090    0.44305    0.90538   1.00
H2       0.76276    0.38105    0.88709   1.00
H2       0.69063    0.35440    0.87135   1.00
H2       0.75653    0.34228    0.86321   1.00
H2       0.72992    0.47698    0.88480   1.00
H2       0.76434    0.53769    0.86544   1.00
H2       0.69027    0.45984    0.86090   1.00
H2       0.94280    0.71484    0.81553   1.00
H2       1.01038    0.76671    0.79924   1.00
H2       1.00898    0.69674    0.81113   1.00
H2       1.01758    0.86356    0.81943   1.00
H2       0.95993    0.81346    0.83838   1.00
H2       1.04343    0.87758    0.84480   1.00
H2       1.11134    0.82285    0.90506   1.00
H2       1.04731    0.74006    0.89855   1.00
H2       1.13387    0.76584    0.89399   1.00
H2       1.16394    0.89420    0.85272   1.00
H2       1.17869    0.91064    0.87880   1.00
H2       1.20181    0.85532    0.86694   1.00
H2       1.03508    0.62340    0.82875   1.00
H2       1.10217    0.61695    0.84028   1.00
H2       1.03266    0.60586    0.85481   1.00
H2       1.19531    0.72953    0.83131   1.00
H2       1.13807    0.74126    0.81600   1.00
H2       1.19023    0.80388    0.83393   1.00
C4       0.36125    0.16897    0.83508   1.00
C4       0.30900    0.14163    0.85021   1.00
C3       0.36209    0.20991    0.81865   1.00
C3       0.24933    0.14726    0.84939   1.00
C3       0.41539    0.15402    0.83613   1.00
C3       0.31629    0.10675    0.86721   1.00
C2       0.46691    0.21952    0.80455   1.00
C2       0.20493    0.08360    0.88117   1.00
C3       0.41322    0.23418    0.80373   1.00
C3       0.19902    0.11961    0.86453   1.00
C3       0.46719    0.18006    0.82114   1.00
C3       0.26363    0.07675    0.88185   1.00
H1       0.32571    0.22348    0.81707   1.00
H1       0.24046    0.17122    0.83771   1.00
C5       0.41760    0.11341    0.85217   1.00
C5       0.37569    0.10141    0.86944   1.00
H1       0.41090    0.26314    0.79212   1.00
H1       0.15723    0.12576    0.86324   1.00
H1       0.50672    0.17049    0.82240   1.00
H1       0.26759    0.04823    0.89322   1.00
O3       0.46300    0.08973    0.85131   1.00
O3       0.39002    0.08019    0.88751   1.00
Si1      0.43889    0.01442    0.84182   1.00
Si1      0.42925    0.13628    0.90538   1.00
C6       0.51990    0.02094    0.84169   1.00
C6       0.38419    -0.04651   0.85963   1.00
C6       0.40542    0.00362    0.81704   1.00
C6       0.44894    0.22127    0.90105   1.00
C6       0.37311    0.10249    0.92603   1.00
C6       0.50387    0.13396    0.91138   1.00
C6       0.57969    0.08868    0.83272   1.00
H2       0.53098    0.02247    0.85786   1.00
C6       0.53002    -0.03759   0.83268   1.00
H2       0.40082    -0.01788   0.87380   1.00
C6       0.30592    -0.07305   0.85811   1.00
C6       0.39003    -0.11178   0.86312   1.00
H2       0.44348    0.05024    0.80950   1.00
C6       0.40051    -0.05695   0.80422   1.00
C6       0.33459    -0.00081   0.81367   1.00
C6       0.49337    0.25928    0.88212   1.00
C6       0.39075    0.23951    0.90199   1.00
H2       0.48073    0.24788    0.91414   1.00
H2       0.32998    0.10856    0.92166   1.00
C6       0.34228    0.02436    0.93005   1.00
C6       0.39850    0.13892    0.94698   1.00
H2       0.48616    0.09010    0.92148   1.00
C6       0.53938    0.11894    0.89347   1.00
C6       0.56183    0.19596    0.92315   1.00
H2       0.58406    0.13345    0.84040   1.00
H2       0.57225    0.09332    0.81655   1.00
H2       0.62871    0.09087    0.83462   1.00
H2       0.56976    -0.04110   0.84110   1.00
H2       0.48406    -0.08731   0.83337   1.00
H2       0.54655    -0.02829   0.81686   1.00
H2       0.28003    -0.09850   0.87216   1.00
H2       0.29517    -0.03178   0.85578   1.00
H2       0.28268    -0.10986   0.84580   1.00
H2       0.44181    -0.09859   0.86732   1.00
H2       0.35720    -0.14269   0.87558   1.00
H2       0.37488    -0.14384   0.84957   1.00
H2       0.37249    -0.10519   0.81238   1.00
H2       0.37488    -0.06259   0.78968   1.00
H2       0.45075    -0.04853   0.80033   1.00
H2       0.29209    -0.05286   0.81522   1.00
H2       0.32509    0.03056    0.82406   1.00
H2       0.33193    0.01624    0.79834   1.00
H2       0.46266    0.24721    0.86840   1.00
H2       0.51824    0.31449    0.88423   1.00
H2       0.53355    0.24712    0.87947   1.00
H2       0.41217    0.29483    0.90188   1.00
H2       0.35629    0.21932    0.88910   1.00
H2       0.36067    0.22099    0.91584   1.00
H2       0.29981    0.00601    0.94076   1.00
H2       0.32199    -0.00529   0.91613   1.00
H2       0.37990    0.01281    0.93636   1.00
H2       0.41915    0.19385    0.94575   1.00
H2       0.35620    0.11982    0.95779   1.00
H2       0.43757    0.12977    0.95348   1.00
H2       0.55730    0.15832    0.88181   1.00
H2       0.58276    0.11441    0.89866   1.00
H2       0.50372    0.07074    0.88642   1.00
H2       0.60021    0.18396    0.92864   1.00
H2       0.58775    0.24101    0.91346   1.00
H2       0.54221    0.20931    0.93641   1.00
C4       0.83072    0.19250    0.83525   1.00
C4       0.85799    0.16744    0.85034   1.00
C3       0.78280    0.15050    0.82034   1.00
C3       0.84490    0.09923    0.85090   1.00
C3       0.85302    0.26364    0.83469   1.00
C3       0.90069    0.21253    0.86587   1.00
C2       0.78055    0.24762    0.80461   1.00
C2       0.91633    0.12108    0.88111   1.00
C3       0.75867    0.17730    0.80537   1.00
C3       0.87273    0.07648    0.86597   1.00
C3       0.82710    0.28948    0.81969   1.00
C3       0.93056    0.18936    0.88039   1.00
H1       0.76384    0.09916    0.81997   1.00
H1       0.81511    0.06418    0.84031   1.00
C5       0.90084    0.30844    0.84916   1.00
C5       0.91389    0.28062    0.86673   1.00
H1       0.72444    0.14453    0.79489   1.00
H1       0.86102    0.02645    0.86572   1.00
H1       0.84212    0.34031    0.81983   1.00
H1       0.96445    0.22339    0.89062   1.00
O3       0.93069    0.37793    0.84657   1.00
O3       0.94340    0.32073    0.88366   1.00
Si1      1.00393    0.41981    0.83492   1.00
Si1      0.89467    0.31508    0.90267   1.00
C6       1.00648    0.49888    0.83343   1.00
C6       1.06699    0.42419    0.85154   1.00
C6       1.00370    0.38736    0.81055   1.00
C6       0.80649    0.25550    0.90100   1.00
C6       0.92997    0.29355    0.92310   1.00
C6       0.90765    0.39747    0.90709   1.00
C6       0.93962    0.49614    0.82575   1.00
H2       1.01117    0.51388    0.84936   1.00
C6       1.06625    0.56129    0.82219   1.00
H2       1.04328    0.41922    0.86633   1.00
C6       1.08525    0.36611    0.85062   1.00
C6       1.13720    0.49202    0.85257   1.00
H2       0.95689    0.38182    0.80396   1.00
C6       1.06268    0.43474    0.79574   1.00
C6       0.99906    0.31602    0.80843   1.00
C6       0.76594    0.26131    0.88265   1.00
C6       0.78088    0.17763    0.90372   1.00
H2       0.78633    0.26803    0.91434   1.00
H2       0.91723    0.24127    0.91982   1.00
C6       1.00958    0.33495    0.92493   1.00
C6       0.90120    0.29253    0.94474   1.00
H2       0.95471    0.42259    0.91591   1.00
C6       0.92199    0.44350    0.88804   1.00
C6       0.85301    0.40423    0.91986   1.00
H2       0.89555    0.46137    0.83489   1.00
H2       0.92888    0.47924    0.80997   1.00
H2       0.94361    0.54620    0.82676   1.00
H2       1.07716    0.60882    0.82966   1.00
H2       1.11327    0.55939    0.82201   1.00
H2       1.05353    0.56537    0.80647   1.00
H2       1.11327    0.36669    0.86420   1.00
H2       1.03999    0.31575    0.84998   1.00
H2       1.11733    0.37227    0.83753   1.00
H2       1.13069    0.53545    0.85620   1.00
H2       1.16966    0.48992    0.86451   1.00
H2       1.16487    0.50192    0.83826   1.00
H2       1.11254    0.45253    0.80269   1.00
H2       1.06111    0.40875    0.78158   1.00
H2       1.05850    0.47860    0.79118   1.00
H2       1.04919    0.32018    0.80896   1.00
H2       0.96826    0.27992    0.82006   1.00
H2       0.97612    0.29286    0.79385   1.00
H2       0.77077    0.23620    0.86918   1.00
H2       0.71157    0.23675    0.88623   1.00
H2       0.78254    0.31407    0.87879   1.00
H2       0.72531    0.14870    0.90516   1.00
H2       0.79405    0.15638    0.89086   1.00
H2       0.80109    0.16729    0.91743   1.00
H2       1.02720    0.31051    0.93577   1.00
H2       1.03400    0.33709    0.91043   1.00
H2       1.02802    0.38710    0.93006   1.00
H2       0.84562    0.26283    0.94507   1.00
H2       0.91966    0.26901    0.95564   1.00
H2       0.91735    0.34404    0.95012   1.00
H2       0.87917    0.42230    0.87749   1.00
H2       0.93340    0.49485    0.89219   1.00
H2       0.96621    0.44873    0.88001   1.00
H2       0.87176    0.45736    0.92414   1.00
H2       0.80578    0.38675    0.91132   1.00
H2       0.84083    0.37509    0.93391   1.00
C4       -0.02756   0.46552    0.33170   1.00
C4       0.02335    0.49117    0.31618   1.00
C3       -0.07005   0.39502    0.33594   1.00
C3       0.03262    0.44886    0.30216   1.00
C3       -0.03772   0.51247    0.34355   1.00
C3       0.06792    0.56303    0.31444   1.00
C2       -0.13164   0.41758    0.36269   1.00
C2       0.12648    0.54704    0.28491   1.00
C3       -0.12092   0.37165    0.35092   1.00
C3       0.08317    0.47596    0.28707   1.00
C3       -0.08845   0.48792    0.35885   1.00
C3       0.11659    0.58942    0.29859   1.00
H1       -0.06513   0.35861    0.32831   1.00
H1       0.00266    0.39715    0.30241   1.00
C5       0.00306    0.58364    0.34010   1.00
C5       0.06338    0.60824    0.32838   1.00
H1       -0.15044   0.32005    0.35321   1.00
H1       0.08791    0.44288    0.27747   1.00
H1       -0.09388   0.52227    0.36761   1.00
H1       0.14515    0.64110    0.29674   1.00
O3       -0.01419   0.62786    0.34910   1.00
O3       0.11399    0.67591    0.32952   1.00
Si1      -0.06171   0.65142    0.33686   1.00
Si1      0.18092    0.69633    0.34353   1.00
C6       -0.07445   0.69465    0.35717   1.00
C6       -0.01086   0.70869    0.31772   1.00
C6       -0.13969   0.58218    0.32842   1.00
C6       0.18679    0.63019    0.35590   1.00
C6       0.24876    0.73767    0.32634   1.00
C6       0.18685    0.75707    0.36134   1.00
C6       -0.09544   0.65562    0.37792   1.00
H2       -0.02319   0.73778    0.35957   1.00
C6       -0.12173   0.72652    0.35473   1.00
H2       0.04036    0.72883    0.32390   1.00
C6       -0.00951   0.67926    0.29636   1.00
C6       -0.01849   0.77248    0.31331   1.00
H2       -0.15807   0.55026    0.34199   1.00
C6       -0.19736   0.59775    0.32225   1.00
C6       -0.13957   0.53525    0.31087   1.00
C6       0.12777    0.58244    0.37056   1.00
C6       0.20499    0.58277    0.34331   1.00
H2       0.23127    0.65853    0.36563   1.00
H2       0.24369    0.69668    0.31648   1.00
C6       0.24570    0.79091    0.31186   1.00
C6       0.32273    0.77264    0.33516   1.00
H2       0.21079    0.80498    0.35290   1.00
C6       0.11809    0.74870    0.36914   1.00
C6       0.23223    0.76981    0.38059   1.00
H2       -0.05883   0.64035    0.38271   1.00
H2       -0.14564   0.60974    0.37694   1.00
H2       -0.09719   0.68778    0.39000   1.00
H2       -0.10216   0.77285    0.36388   1.00
H2       -0.12517   0.74021    0.33916   1.00
H2       -0.17365   0.69218    0.36000   1.00
H2       0.03384    0.71676    0.28745   1.00
H2       -0.00387   0.63438    0.29743   1.00
H2       -0.05575   0.66601    0.28780   1.00
H2       -0.01017   0.80289    0.32697   1.00
H2       0.01937    0.80647    0.30227   1.00
H2       -0.06887   0.75743    0.30717   1.00
H2       -0.17912   0.63847    0.31097   1.00
H2       -0.24189   0.55296    0.31590   1.00
H2       -0.21648   0.61220    0.33533   1.00
H2       -0.14144   0.55490    0.29591   1.00
H2       -0.09538   0.52867    0.31104   1.00
H2       -0.18441   0.48432    0.31213   1.00
H2       0.08503    0.54164    0.36239   1.00
H2       0.14554    0.55821    0.38141   1.00
H2       0.10877    0.61015    0.37935   1.00
H2       0.21616    0.55121    0.35338   1.00
H2       0.16339    0.54814    0.33348   1.00
H2       0.25034    0.61175    0.33398   1.00
H2       0.28301    0.80499    0.29962   1.00
H2       0.19568    0.76997    0.30468   1.00
H2       0.25657    0.83749    0.31984   1.00
H2       0.33025    0.73831    0.34505   1.00
H2       0.36009    0.78764    0.32290   1.00
H2       0.33461    0.81861    0.34370   1.00
H2       0.08778    0.70086    0.37727   1.00
H2       0.12623    0.79052    0.37917   1.00
H2       0.08802    0.74933    0.35641   1.00
H2       0.24015    0.81529    0.38873   1.00
H2       0.20852    0.72684    0.39111   1.00
H2       0.28260    0.77825    0.37662   1.00
C4       0.49318    1.02789    0.33161   1.00
C4       0.46798    0.97694    0.31609   1.00
C3       0.46867    1.07391    0.33478   1.00
C3       0.42032    0.97098    0.30108   1.00
C3       0.54660    1.03435    0.34456   1.00
C3       0.49119    0.92883    0.31541   1.00
C2       0.54915    1.13173    0.36266   1.00
C2       0.42065    0.87343    0.28494   1.00
C3       0.49612    1.12466    0.34980   1.00
C3       0.39680    0.92027    0.28604   1.00
C3       0.57272    1.08505    0.35987   1.00
C3       0.46908    0.87998    0.29962   1.00
H1       0.43001    1.07176    0.32632   1.00
H1       0.40161    1.00355    0.30055   1.00
C5       0.57338    0.98993    0.34220   1.00
C5       0.53676    0.93003    0.33036   1.00
H1       0.47669    1.15682    0.35130   1.00
H1       0.36188    0.91803    0.27568   1.00
H1       0.60971    1.08785    0.36942   1.00
H1       0.48949    0.84874    0.29858   1.00
O3       0.63203    1.00339    0.35234   1.00
O3       0.54921    0.87646    0.33240   1.00
Si1      0.70594    1.04727    0.34118   1.00
Si1      0.49712    0.81073    0.34606   1.00
C6       0.75695    1.05655    0.36253   1.00
C6       0.71181    0.99404    0.32274   1.00
C6       0.72160    1.12722    0.33213   1.00
C6       0.42535    0.80999    0.35691   1.00
C6       0.46978    0.74234    0.32904   1.00
C6       0.54607    0.80076    0.36509   1.00
C6       0.73744    1.07975    0.38263   1.00
H2       0.74494    1.00414    0.36529   1.00
C6       0.83682    1.09968    0.36133   1.00
H2       0.67709    0.94337    0.32878   1.00
C6       0.68600    0.99470    0.30078   1.00
C6       0.78170    0.99671    0.31982   1.00
H2       0.70752    1.14733    0.34518   1.00
C6       0.79725    1.18149    0.32696   1.00
C6       0.67960    1.13037    0.31360   1.00
C6       0.43789    0.87035    0.37117   1.00
C6       0.36330    0.79582    0.34310   1.00
H2       0.40484    0.76524    0.36673   1.00
H2       0.43746    0.75011    0.31837   1.00
C6       0.52664    0.74129    0.31578   1.00
C6       0.42532    0.66873    0.33777   1.00
H2       0.56883    0.77419    0.35745   1.00
C6       0.60769    0.86756    0.37348   1.00
C6       0.50795    0.75636    0.38406   1.00
H2       0.68410    1.04569    0.38666   1.00
H2       0.74547    1.13135    0.38122   1.00
H2       0.76794    1.07919    0.39540   1.00
H2       0.85942    1.07758    0.37124   1.00
H2       0.85632    1.10186    0.34612   1.00
H2       0.85658    1.15215    0.36642   1.00
H2       0.67880    0.95021    0.29221   1.00
H2       0.63691    0.99255    0.30080   1.00
H2       0.72262    1.04007    0.29246   1.00
H2       0.79983    0.98661    0.33402   1.00
H2       0.77718    0.95774    0.30911   1.00
H2       0.82042    1.04620    0.31393   1.00
H2       0.81950    1.16090    0.31639   1.00
H2       0.80142    1.22752    0.32015   1.00
H2       0.82852    1.19895    0.34055   1.00
H2       0.70307    1.13061    0.29911   1.00
H2       0.62758    1.08835    0.31312   1.00
H2       0.67683    1.17720    0.31425   1.00
H2       0.44437    0.91434    0.36261   1.00
H2       0.39431    0.85511    0.38127   1.00
H2       0.48253    0.88668    0.38076   1.00
H2       0.31966    0.78747    0.35235   1.00
H2       0.37483    0.83827    0.33302   1.00
H2       0.34593    0.75003    0.33392   1.00
H2       0.50380    0.70428    0.30345   1.00
H2       0.55953    0.79086    0.30873   1.00
H2       0.55867    0.72752    0.32464   1.00
H2       0.38282    0.66408    0.34681   1.00
H2       0.40331    0.63161    0.32543   1.00
H2       0.45562    0.65404    0.34716   1.00
H2       0.59164    0.90025    0.38090   1.00
H2       0.63762    0.85678    0.38430   1.00
H2       0.64166    0.89632    0.36112   1.00
H2       0.54194    0.74550    0.39309   1.00
H2       0.48932    0.78236    0.39390   1.00
H2       0.46470    0.70727    0.37973   1.00
C4       0.53471    0.50683    0.33161   1.00
C4       0.50896    0.53203    0.31609   1.00
C3       0.60525    0.53148    0.33483   1.00
C3       0.55070    0.57985    0.30112   1.00
C3       0.48774    0.45325    0.34452   1.00
C3       0.43762    0.50864    0.31537   1.00
C2       0.58258    0.45085    0.36266   1.00
C2       0.45280    0.57935    0.28494   1.00
C3       0.62856    0.50404    0.34985   1.00
C3       0.52351    0.60337    0.28608   1.00
C3       0.51233    0.42713    0.35983   1.00
C3       0.41088    0.53076    0.29958   1.00
H1       0.64176    0.57026    0.32640   1.00
H1       0.60200    0.59869    0.30062   1.00
C5       0.41653    0.42631    0.34212   1.00
C5       0.39320    0.46289    0.33028   1.00
H1       0.68014    0.52358    0.35137   1.00
H1       0.55621    0.63841    0.27576   1.00
H1       0.47811    0.39001    0.36935   1.00
H1       0.35923    0.51023    0.29850   1.00
O3       0.37137    0.36754    0.35221   1.00
O3       0.32711    0.45026    0.33229   1.00
Si1      0.34160    0.29373    0.34100   1.00
Si1      0.31318    0.50212    0.34597   1.00
C6       0.29981    0.24252    0.36231   1.00
C6       0.28258    0.28784    0.32254   1.00
C6       0.40611    0.27835    0.33198   1.00
C6       0.38402    0.57392    0.35687   1.00
C6       0.27212    0.52943    0.32894   1.00
C6       0.25418    0.45293    0.36494   1.00
C6       0.34236    0.26197    0.38244   1.00
H2       0.25929    0.25437    0.36505   1.00
C6       0.26326    0.16266    0.36106   1.00
H2       0.26645    0.32241    0.32858   1.00
C6       0.30917    0.31385    0.30059   1.00
C6       0.21549    0.21788    0.31955   1.00
H2       0.44020    0.29242    0.34505   1.00
C6       0.38497    0.20280    0.32676   1.00
C6       0.45134    0.32057    0.31348   1.00
C6       0.43184    0.56143    0.37115   1.00
C6       0.43190    0.63612    0.34312   1.00
H2       0.35961    0.59425    0.36670   1.00
H2       0.31226    0.56190    0.31830   1.00
C6       0.21440    0.47259    0.31563   1.00
C6       0.24274    0.57368    0.33767   1.00
H2       0.20490    0.43011    0.35727   1.00
C6       0.25948    0.39135    0.37331   1.00
C6       0.24763    0.49083    0.38393   1.00
H2       0.36148    0.31526    0.38650   1.00
H2       0.38604    0.25410    0.38105   1.00
H2       0.31125    0.23133    0.39518   1.00
H2       0.21848    0.13989    0.37094   1.00
H2       0.24609    0.14326    0.34583   1.00
H2       0.29604    0.14299    0.36616   1.00
H2       0.27187    0.32100    0.29201   1.00
H2       0.35603    0.36300    0.30066   1.00
H2       0.31811    0.27738    0.29227   1.00
H2       0.18717    0.19958    0.33373   1.00
H2       0.18105    0.22236    0.30883   1.00
H2       0.22643    0.17928    0.31365   1.00
H2       0.34220    0.18053    0.31616   1.00
H2       0.42695    0.19881    0.31997   1.00
H2       0.37112    0.17143    0.34033   1.00
H2       0.42825    0.29718    0.29898   1.00
H2       0.46120    0.37254    0.31303   1.00
H2       0.50100    0.32348    0.31416   1.00
H2       0.46950    0.55514    0.36261   1.00
H2       0.46002    0.60495    0.38129   1.00
H2       0.40355    0.51670    0.38071   1.00
H2       0.46703    0.67973    0.35240   1.00
H2       0.46297    0.62477    0.33304   1.00
H2       0.40345    0.65345    0.33393   1.00
H2       0.20024    0.49544    0.30330   1.00
H2       0.23125    0.43984    0.30857   1.00
H2       0.16855    0.44040    0.32445   1.00
H2       0.28044    0.61615    0.34674   1.00
H2       0.22763    0.59570    0.32534   1.00
H2       0.19770    0.54322    0.34703   1.00
H2       0.30820    0.40747    0.38075   1.00
H2       0.21873    0.36127    0.38410   1.00
H2       0.25447    0.35751    0.36094   1.00
H2       0.20275    0.45669    0.39293   1.00
H2       0.29221    0.50950    0.39380   1.00
H2       0.24168    0.53403    0.37961   1.00
C4       0.19465    0.35802    0.16589   1.00
C4       0.16882    0.30702    0.15039   1.00
C3       0.15876    0.35318    0.18405   1.00
C3       0.10212    0.24926    0.15063   1.00
C3       0.25950    0.41791    0.16311   1.00
C3       0.21162    0.31346    0.13365   1.00
C2       0.24887    0.46489    0.19606   1.00
C2       0.11983    0.20695    0.11822   1.00
C3       0.18490    0.40528    0.19867   1.00
C3       0.07848    0.20024    0.13510   1.00
C3       0.28555    0.46931    0.17822   1.00
C3       0.18582    0.26505    0.11772   1.00
H1       0.11268    0.31155    0.18721   1.00
H1       0.06860    0.24130    0.16204   1.00
C5       0.29803    0.42593    0.14531   1.00
C5       0.27967    0.36839    0.13277   1.00
H1       0.15643    0.39918    0.21143   1.00
H1       0.02999    0.15921    0.13616   1.00
H1       0.33297    0.51111    0.17627   1.00
H1       0.21556    0.27272    0.10523   1.00
O3       0.35472    0.48808    0.14111   1.00
O3       0.32580    0.36841    0.11903   1.00
Si1      0.34758    0.54290    0.12673   1.00
Si1      0.36711    0.32894    0.12496   1.00
C6       0.43091    0.61195    0.13047   1.00
C6       0.33595    0.51236    0.10161   1.00
C6       0.28565    0.56253    0.13544   1.00
C6       0.34856    0.28539    0.14841   1.00
C6       0.34657    0.27036    0.10505   1.00
C6       0.45478    0.38903    0.12335   1.00
C6       0.45617    0.62681    0.15302   1.00
H2       0.46210    0.59376    0.12315   1.00
C6       0.45401    0.68368    0.12085   1.00
H2       0.35968    0.48066    0.10206   1.00
C6       0.26152    0.46480    0.09384   1.00
C6       0.37267    0.56470    0.08405   1.00
H2       0.29805    0.57223    0.15156   1.00
C6       0.28887    0.62856    0.12681   1.00
C6       0.20797    0.50697    0.13419   1.00
C6       0.35708    0.32697    0.16820   1.00
C6       0.28053    0.21583    0.15092   1.00
H2       0.38786    0.27101    0.14929   1.00
H2       0.29287    0.23330    0.10758   1.00
C6       0.35014    0.29868    0.08314   1.00
C6       0.38487    0.22898    0.10429   1.00
H2       0.46607    0.39143    0.10717   1.00
C6       0.47639    0.46368    0.12943   1.00
C6       0.50608    0.37215    0.13422   1.00
H2       0.45234    0.58171    0.16031   1.00
H2       0.42636    0.64334    0.16195   1.00
H2       0.50975    0.66670    0.15389   1.00
H2       0.50809    0.70879    0.11686   1.00
H2       0.42598    0.68074    0.10715   1.00
H2       0.44826    0.71777    0.13135   1.00
H2       0.26162    0.43818    0.08001   1.00
H2       0.23063    0.42545    0.10482   1.00
H2       0.23635    0.49395    0.09030   1.00
H2       0.42762    0.59436    0.08654   1.00
H2       0.36562    0.53883    0.06949   1.00
H2       0.35267    0.59949    0.08250   1.00
H2       0.28857    0.62830    0.11025   1.00
H2       0.24589    0.63404    0.13194   1.00
H2       0.33409    0.67422    0.13209   1.00
H2       0.18561    0.50763    0.11959   1.00
H2       0.19813    0.45548    0.13651   1.00
H2       0.17932    0.51640    0.14586   1.00
H2       0.31230    0.33163    0.17123   1.00
H2       0.36397    0.30148    0.18133   1.00
H2       0.40139    0.37801    0.16757   1.00
H2       0.28096    0.19082    0.16507   1.00
H2       0.23605    0.22224    0.15145   1.00
H2       0.27315    0.18009    0.13877   1.00
H2       0.32563    0.25674    0.07226   1.00
H2       0.32325    0.32743    0.08222   1.00
H2       0.40259    0.33187    0.07816   1.00
H2       0.38325    0.20547    0.11888   1.00
H2       0.36096    0.18766    0.09319   1.00
H2       0.43813    0.26124    0.09984   1.00
H2       0.46519    0.46772    0.14528   1.00
H2       0.53074    0.49834    0.12687   1.00
H2       0.44910    0.48189    0.12018   1.00
H2       0.55849    0.40777    0.12956   1.00
H2       0.50355    0.37561    0.15070   1.00
H2       0.49628    0.32117    0.13044   1.00
C4       0.63451    0.83375    0.16366   1.00
C4       0.68685    0.86103    0.14856   1.00
C3       0.57156    0.83272    0.16173   1.00
C3       0.68408    0.89552    0.13091   1.00
C3       0.64561    0.80679    0.18192   1.00
C3       0.74543    0.85361    0.15105   1.00
C2       0.53266    0.78076    0.19532   1.00
C2       0.79550    0.91612    0.11896   1.00
C3       0.52217    0.80733    0.17716   1.00
C3       0.73659    0.92176    0.11642   1.00
C3       0.59462    0.78024    0.19714   1.00
C3       0.79909    0.88297    0.13670   1.00
H1       0.55964    0.85017    0.14902   1.00
H1       0.64404    0.90297    0.12813   1.00
C5       0.70745    0.80626    0.18481   1.00
C5       0.75052    0.81752    0.16789   1.00
H1       0.47781    0.80835    0.17497   1.00
H1       0.73154    0.94570    0.10387   1.00
H1       0.60251    0.75934    0.20991   1.00
H1       0.84257    0.88101    0.13936   1.00
O3       0.72274    0.79096    0.20363   1.00
O3       0.79946    0.79809    0.16853   1.00
Si1      0.76858    0.85231    0.21954   1.00
Si1      0.78352    0.72704    0.15755   1.00
C6       0.75856    0.80019    0.24067   1.00
C6       0.85331    0.89394    0.21062   1.00
C6       0.73482    0.90630    0.22444   1.00
C6       0.70524    0.67969    0.14455   1.00
C6       0.85124    0.75339    0.14033   1.00
C6       0.79206    0.67595    0.17614   1.00
C6       0.68385    0.74203    0.24522   1.00
H2       0.78569    0.77411    0.23580   1.00
C6       0.78966    0.83223    0.26187   1.00
H2       0.85441    0.85392    0.20169   1.00
C6       0.87658    0.95582    0.19587   1.00
C6       0.91256    0.91740    0.22638   1.00
H2       0.68111    0.86972    0.22735   1.00
C6       0.76159    0.95282    0.24372   1.00
C6       0.73630    0.95528    0.20730   1.00
C6       0.63779    0.65647    0.15667   1.00
C6       0.69521    0.70527    0.12344   1.00
H2       0.70520    0.63268    0.14085   1.00
H2       0.84082    0.78171    0.12886   1.00
C6       0.92398    0.80461    0.14870   1.00
C6       0.85764    0.69654    0.12877   1.00
H2       0.84697    0.69590    0.17705   1.00
C6       0.77025    0.68215    0.19811   1.00
C6       0.75931    0.59775    0.17183   1.00
H2       0.66079    0.70927    0.23202   1.00
H2       0.65146    0.76298    0.24962   1.00
H2       0.68276    0.70905    0.25750   1.00
H2       0.80543    0.80008    0.26987   1.00
H2       0.83405    0.88295    0.26072   1.00
H2       0.75279    0.83600    0.27167   1.00
H2       0.92400    0.96744    0.18818   1.00
H2       0.83927    0.94542    0.18399   1.00
H2       0.88586    1.00159    0.20405   1.00
H2       0.90647    0.87487    0.23569   1.00
H2       0.96198    0.93766    0.21882   1.00
H2       0.91530    0.95743    0.23625   1.00
H2       0.81718    0.98334    0.24371   1.00
H2       0.74153    0.98781    0.24475   1.00
H2       0.74496    0.92281    0.25756   1.00
H2       0.78396    1.00401    0.20727   1.00
H2       0.72981    0.93417    0.19218   1.00
H2       0.69503    0.96643    0.20963   1.00
H2       0.62474    0.69664    0.15745   1.00
H2       0.59510    0.61270    0.14929   1.00
H2       0.64075    0.64091    0.17208   1.00
H2       0.64864    0.66610    0.11611   1.00
H2       0.69050    0.75062    0.12474   1.00
H2       0.73685    0.71637    0.11300   1.00
H2       0.96053    0.82675    0.13623   1.00
H2       0.92437    0.84703    0.15673   1.00
H2       0.94267    0.77998    0.15904   1.00
H2       0.80942    0.65932    0.12185   1.00
H2       0.89496    0.71884    0.11649   1.00
H2       0.87462    0.66968    0.13885   1.00
H2       0.71619    0.66600    0.19908   1.00
H2       0.78088    0.65200    0.20889   1.00
H2       0.79896    0.73483    0.20310   1.00
H2       0.77684    0.57383    0.18288   1.00
H2       0.70371    0.57177    0.17274   1.00
H2       0.77327    0.58804    0.15689   1.00
C4       0.16519    0.79985    0.16371   1.00
C4       0.13804    0.82515    0.14864   1.00
C3       0.15463    0.73253    0.16365   1.00
C3       0.09261    0.78397    0.13311   1.00
C3       0.20431    0.84352    0.17998   1.00
C3       0.15712    0.89552    0.14892   1.00
C2       0.21897    0.75148    0.19527   1.00
C2       0.08415    0.87982    0.11901   1.00
C3       0.18042    0.70885    0.17905   1.00
C3       0.06689    0.81065    0.11858   1.00
C3       0.23097    0.81906    0.19516   1.00
C3       0.12834    0.92073    0.13467   1.00
H1       0.12808    0.69881    0.15238   1.00
H1       0.07654    0.73330    0.13197   1.00
C5       0.21679    0.91143    0.18093   1.00
C5       0.20427    0.94026    0.16350   1.00
H1       0.17072    0.65951    0.17829   1.00
H1       0.03468    0.77860    0.10760   1.00
H1       0.26052    0.85155    0.20643   1.00
H1       0.13909    0.97015    0.13587   1.00
O3       0.24448    0.94949    0.19825   1.00
O3       0.23362    1.01017    0.16163   1.00
Si1      0.19443    0.95096    0.21583   1.00
Si1      0.30141    1.05143    0.14750   1.00
C6       0.25806    0.99559    0.23425   1.00
C6       0.16041    1.00086    0.20663   1.00
C6       0.13346    0.86901    0.22454   1.00
C6       0.33237    1.00406    0.13453   1.00
C6       0.27689    1.09313    0.12982   1.00
C6       0.36595    1.11394    0.16291   1.00
C6       0.30933    0.96919    0.23794   1.00
H2       0.28820    1.04570    0.22723   1.00
C6       0.23916    1.00958    0.25594   1.00
H2       0.19904    1.03371    0.19566   1.00
C6       0.09163    0.96450    0.19463   1.00
C6       0.15292    1.05026    0.22165   1.00
H2       0.16458    0.84524    0.22712   1.00
C6       0.09750    0.86468    0.24524   1.00
C6       0.07357    0.81974    0.21015   1.00
C6       0.35123    0.95770    0.14732   1.00
C6       0.29358    0.96153    0.11533   1.00
H2       0.38069    1.04416    0.12839   1.00
H2       0.23960    1.05189    0.12030   1.00
C6       0.23871    1.12914    0.13859   1.00
C6       0.33313    1.14546    0.11521   1.00
H2       0.35451    1.15539    0.16319   1.00
C6       0.36586    1.09455    0.18560   1.00
C6       0.44159    1.14642    0.15551   1.00
H2       0.33411    0.96791    0.22386   1.00
H2       0.28355    0.91783    0.24437   1.00
H2       0.34999    1.00259    0.24836   1.00
H2       0.27981    1.05844    0.26167   1.00
H2       0.19221    1.01159    0.25614   1.00
H2       0.23342    0.97099    0.26695   1.00
H2       0.08378    1.00164    0.18621   1.00
H2       0.09078    0.92868    0.18347   1.00
H2       0.04830    0.93733    0.20485   1.00
H2       0.20151    1.08550    0.22879   1.00
H2       0.13627    1.08192    0.21375   1.00
H2       0.11538    1.02192    0.23344   1.00
H2       0.07451    0.89710    0.24516   1.00
H2       0.05731    0.81260    0.24872   1.00
H2       0.13308    0.87949    0.25783   1.00
H2       0.02981    0.82749    0.21125   1.00
H2       0.08788    0.82503    0.19430   1.00
H2       0.05573    0.76667    0.21430   1.00
H2       0.30659    0.90840    0.15061   1.00
H2       0.38708    0.94766    0.13901   1.00
H2       0.37549    0.98131    0.16164   1.00
H2       0.32390    0.94329    0.10743   1.00
H2       0.24510    0.91680    0.11916   1.00
H2       0.28401    0.99175    0.10433   1.00
H2       0.21555    1.14323    0.12634   1.00
H2       0.19736    1.09536    0.14876   1.00
H2       0.27294    1.17545    0.14694   1.00
H2       0.36128    1.12390    0.10786   1.00
H2       0.31003    1.16033    0.10312   1.00
H2       0.36932    1.19182    0.12323   1.00
H2       0.37428    1.05143    0.18735   1.00
H2       0.40481    1.13733    0.19434   1.00
H2       0.31702    1.08067    0.19245   1.00
H2       0.47521    1.19118    0.16463   1.00
H2       0.46017    1.11036    0.15672   1.00
H2       0.44734    1.16355    0.13981   1.00
C4       1.02508    0.52660    0.66757   1.00
C4       0.97425    0.50120    0.68312   1.00
C3       1.03205    0.48436    0.65298   1.00
C3       0.92943    0.43069    0.68678   1.00
C3       1.07254    0.59804    0.66660   1.00
C3       0.96719    0.54840    0.69580   1.00
C2       1.13135    0.58150    0.63723   1.00
C2       0.87381    0.45388    0.71517   1.00
C3       1.08393    0.51095    0.63830   1.00
C3       0.88015    0.40765    0.70224   1.00
C3       1.12372    0.62402    0.65143   1.00
C3       0.91918    0.52411    0.71184   1.00
H1       0.99949    0.43306    0.65255   1.00
H1       0.93153    0.39399    0.67841   1.00
C5       1.06838    0.64310    0.68073   1.00
C5       1.00839    0.61954    0.69254   1.00
H1       1.08677    0.47787    0.62823   1.00
H1       0.84874    0.35607    0.70407   1.00
H1       1.15622    0.67558    0.65056   1.00
H1       0.91774    0.55849    0.72159   1.00
O3       1.12058    0.70979    0.68191   1.00
O3       0.99353    0.66533    0.70182   1.00
Si1      1.18217    0.73090    0.69825   1.00
Si1      0.93819    0.68168    0.69119   1.00
C6       1.23511    0.81524    0.68966   1.00
C6       1.14896    0.72959    0.72253   1.00
C6       1.22298    0.68214    0.69585   1.00
C6       0.89757    0.63756    0.66869   1.00
C6       0.87690    0.66114    0.71029   1.00
C6       0.97933    0.77037    0.68710   1.00
C6       1.24664    0.82424    0.66615   1.00
H2       1.20501    0.83926    0.69342   1.00
C6       1.30721    0.86213    0.69933   1.00
H2       1.10680    0.73822    0.71899   1.00
C6       1.11691    0.66162    0.73494   1.00
C6       1.19467    0.78668    0.73804   1.00
H2       1.23183    0.68384    0.67951   1.00
C6       1.29462    0.71092    0.70610   1.00
C6       1.18367    0.60468    0.70198   1.00
C6       0.94342    0.64347    0.65019   1.00
C6       0.84025    0.56082    0.66988   1.00
H2       0.87020    0.66350    0.66394   1.00
H2       0.85158    0.60568    0.71129   1.00
C6       0.90510    0.68771    0.73210   1.00
C6       0.81961    0.67912    0.70633   1.00
H2       0.97703    0.79112    0.70184   1.00
C6       1.05675    0.80619    0.68182   1.00
C6       0.94672    0.79814    0.67157   1.00
H2       1.19832    0.80235    0.65795   1.00
H2       1.27465    0.79971    0.66066   1.00
H2       1.27550    0.87815    0.66198   1.00
H2       1.31896    0.91521    0.69931   1.00
H2       1.31067    0.84854    0.71491   1.00
H2       1.34791    0.86087    0.69080   1.00
H2       1.08582    0.66301    0.74743   1.00
H2       1.08327    0.61763    0.72571   1.00
H2       1.15633    0.65318    0.74152   1.00
H2       1.21192    0.83741    0.73183   1.00
H2       1.16642    0.78317    0.75188   1.00
H2       1.23906    0.78269    0.74243   1.00
H2       1.29269    0.72198    0.72213   1.00
H2       1.31378    0.67521    0.70506   1.00
H2       1.33281    0.75699    0.69858   1.00
H2       1.18939    0.59730    0.71807   1.00
H2       1.12947    0.57950    0.69890   1.00
H2       1.20373    0.57699    0.69350   1.00
H2       0.96197    0.60754    0.65131   1.00
H2       0.91441    0.63205    0.63606   1.00
H2       0.98724    0.69453    0.64863   1.00
H2       0.81376    0.54375    0.65534   1.00
H2       0.86041    0.52737    0.67345   1.00
H2       0.80136    0.55235    0.68109   1.00
H2       0.86444    0.66296    0.74335   1.00
H2       0.94484    0.67599    0.73627   1.00
H2       0.92623    0.74267    0.73344   1.00
H2       0.79544    0.66059    0.69159   1.00
H2       0.77944    0.65519    0.71777   1.00
H2       0.83953    0.73407    0.70706   1.00
H2       1.06616    0.78772    0.66759   1.00
H2       1.07920    0.86145    0.68071   1.00
H2       1.08400    0.79663    0.69373   1.00
H2       0.97061    0.85361    0.67270   1.00
H2       0.95303    0.78590    0.65598   1.00
H2       0.89245    0.77733    0.67440   1.00
C4       0.50195    -0.02494   0.66753   1.00
C4       0.52731    0.02592    0.68307   1.00
C3       0.45684    -0.02869   0.65197   1.00
C3       0.50530    0.07418    0.68569   1.00
C3       0.52165    -0.07578   0.66757   1.00
C3       0.57762    0.02939    0.69683   1.00
C2       0.45028    -0.13138   0.63724   1.00
C2       0.57992    0.12622    0.71516   1.00
C3       0.43138    -0.08065   0.63731   1.00
C3       0.53132    0.12337    0.70118   1.00
C3       0.49641    -0.12702   0.65242   1.00
C3       0.60103    0.07746    0.71285   1.00
H1       0.44133    0.00634    0.65080   1.00
H1       0.46941    0.07475    0.67652   1.00
C5       0.56664    -0.07493   0.68270   1.00
C5       0.60390    -0.01543   0.69466   1.00
H1       0.39851    -0.08105   0.62651   1.00
H1       0.51396    0.15734    0.70224   1.00
H1       0.51247    -0.16202   0.65231   1.00
H1       0.63376    0.07643    0.72334   1.00
O3       0.57648    -0.12997   0.68474   1.00
O3       0.66153    -0.00439   0.70508   1.00
Si1      0.53016    -0.19060   0.70081   1.00
Si1      0.73632    0.04755    0.69545   1.00
C6       0.55794    -0.24771   0.69347   1.00
C6       0.55885    -0.15836   0.72539   1.00
C6       0.44163    -0.22632   0.69690   1.00
C6       0.74000    0.08963    0.67250   1.00
C6       0.77650    0.10814    0.71476   1.00
C6       0.77965    0.00151    0.69284   1.00
C6       0.55890    -0.25964   0.67007   1.00
H2       0.61142    -0.22047   0.69809   1.00
C6       0.52670    -0.32037   0.70332   1.00
H2       0.61134    -0.11847   0.72252   1.00
C6       0.52451    -0.12250   0.73666   1.00
C6       0.56362    -0.20634   0.74159   1.00
H2       0.43705    -0.23509   0.68053   1.00
C6       0.39338    -0.29722   0.70694   1.00
C6       0.40681    -0.18283   0.70177   1.00
C6       0.70163    0.04496    0.65364   1.00
C6       0.72538    0.15034    0.67267   1.00
H2       0.79404    0.11403    0.66864   1.00
H2       0.74927    0.13653    0.71484   1.00
C6       0.76894    0.07928    0.73678   1.00
C6       0.85367    0.16190    0.71184   1.00
H2       0.79929    0.00234    0.70802   1.00
C6       0.73498    -0.07559   0.68746   1.00
C6       0.84279    0.03072    0.67831   1.00
H2       0.58929    -0.21166   0.66196   1.00
H2       0.50739    -0.28485   0.66374   1.00
H2       0.58155    -0.29136   0.66675   1.00
H2       0.56549    -0.33553   0.70432   1.00
H2       0.50727    -0.32258   0.71854   1.00
H2       0.48496    -0.35949   0.69432   1.00
H2       0.55573    -0.09259   0.74950   1.00
H2       0.51872    -0.08703   0.72688   1.00
H2       0.47450    -0.15973   0.74259   1.00
H2       0.59559    -0.22666   0.73630   1.00
H2       0.58695    -0.17879   0.75565   1.00
H2       0.51313    -0.24869   0.74539   1.00
H2       0.40309    -0.29603   0.72320   1.00
H2       0.33949    -0.31306   0.70490   1.00
H2       0.39947    -0.33735   0.70000   1.00
H2       0.39092    -0.18766   0.71760   1.00
H2       0.43922    -0.12890   0.69876   1.00
H2       0.36104    -0.20018   0.69248   1.00
H2       0.64776    0.02973    0.65377   1.00
H2       0.72318    0.07356    0.63962   1.00
H2       0.70563    -0.00091   0.65270   1.00
H2       0.73898    0.17693    0.65808   1.00
H2       0.67181    0.13342    0.67528   1.00
H2       0.75541    0.18845    0.68411   1.00
H2       0.78519    0.12028    0.74794   1.00
H2       0.71588    0.04195    0.74024   1.00
H2       0.79961    0.05498    0.73908   1.00
H2       0.86352    0.18637    0.69700   1.00
H2       0.87016    0.20237    0.72320   1.00
H2       0.88569    0.13876    0.71354   1.00
H2       0.71009    -0.08342   0.67276   1.00
H2       0.76501    -0.10120   0.68730   1.00
H2       0.69550    -0.10100   0.69884   1.00
H2       0.87115    0.00373    0.68037   1.00
H2       0.82733    0.02541    0.66241   1.00
H2       0.87840    0.08445    0.68129   1.00
C4       0.47312    0.49807    0.66753   1.00
C4       0.49862    0.47271    0.68307   1.00
C3       0.51452    0.54335    0.65201   1.00
C3       0.56890    0.49487    0.68574   1.00
C3       0.40253    0.47819    0.66753   1.00
C3       0.45174    0.42223    0.69679   1.00
C2       0.41834    0.54973    0.63724   1.00
C2       0.54628    0.42007    0.71516   1.00
C3       0.48801    0.56880    0.63734   1.00
C3       0.59206    0.46884    0.70122   1.00
C3       0.37653    0.50343    0.65238   1.00
C3       0.47639    0.39881    0.71281   1.00
H1       0.56510    0.55899    0.65086   1.00
H1       0.60538    0.53089    0.67659   1.00
C5       0.35834    0.43302    0.68262   1.00
C5       0.38063    0.39579    0.69457   1.00
H1       0.52051    0.60180    0.62658   1.00
H1       0.64341    0.48632    0.70231   1.00
H1       0.32544    0.48724    0.65224   1.00
H1       0.44260    0.36594    0.72327   1.00
O3       0.29338    0.42298    0.68463   1.00
O3       0.33406    0.33803    0.70495   1.00
Si1      0.27879    0.46908    0.70071   1.00
Si1      0.31148    0.26336    0.69528   1.00
C6       0.19391    0.44114    0.69332   1.00
C6       0.28224    0.44025    0.72528   1.00
C6       0.33144    0.55766    0.69686   1.00
C6       0.35013    0.25997    0.67234   1.00
C6       0.33189    0.22315    0.71458   1.00
C6       0.22212    0.21984    0.69260   1.00
C6       0.18118    0.44032    0.66992   1.00
H2       0.16775    0.38763    0.69790   1.00
C6       0.15227    0.47214    0.70317   1.00
H2       0.26980    0.38782    0.72238   1.00
C6       0.35236    0.47467    0.73660   1.00
C6       0.22931    0.43521    0.74145   1.00
H2       0.32736    0.56235    0.68049   1.00
C6       0.30855    0.60570    0.70691   1.00
C6       0.40972    0.59262    0.70179   1.00
C6       0.34384    0.29840    0.65350   1.00
C6       0.42552    0.27479    0.67255   1.00
H2       0.32063    0.20595    0.66844   1.00
H2       0.38752    0.25051    0.71469   1.00
C6       0.31037    0.23048    0.73659   1.00
C6       0.30870    0.14605    0.71162   1.00
H2       0.20323    0.20006    0.70777   1.00
C6       0.18955    0.26439    0.68724   1.00
C6       0.18844    0.15681    0.67803   1.00
H2       0.19895    0.41009    0.66180   1.00
H2       0.20742    0.49188    0.66362   1.00
H2       0.12682    0.41756    0.66656   1.00
H2       0.09833    0.43323    0.70413   1.00
H2       0.16934    0.49148    0.71840   1.00
H2       0.15483    0.51389    0.69419   1.00
H2       0.35105    0.44339    0.74943   1.00
H2       0.39374    0.48064    0.72683   1.00
H2       0.36496    0.52460    0.74256   1.00
H2       0.17707    0.40317    0.73613   1.00
H2       0.23349    0.41182    0.75550   1.00
H2       0.23728    0.48562    0.74528   1.00
H2       0.29991    0.59585    0.72317   1.00
H2       0.34651    0.65963    0.70492   1.00
H2       0.26231    0.59953    0.69995   1.00
H2       0.42064    0.60840    0.71763   1.00
H2       0.43140    0.56035    0.69877   1.00
H2       0.43812    0.63848    0.69253   1.00
H2       0.38237    0.35231    0.65367   1.00
H2       0.35107    0.27701    0.63947   1.00
H2       0.29392    0.29427    0.65253   1.00
H2       0.43868    0.26136    0.65796   1.00
H2       0.46204    0.32837    0.67520   1.00
H2       0.43361    0.24474    0.68398   1.00
H2       0.33513    0.21424    0.74775   1.00
H2       0.32595    0.28348    0.74009   1.00
H2       0.25539    0.19967    0.73885   1.00
H2       0.32348    0.13637    0.69678   1.00
H2       0.33268    0.12957    0.72298   1.00
H2       0.25354    0.11390    0.71327   1.00
H2       0.20668    0.28941    0.67255   1.00
H2       0.13392    0.23424    0.68703   1.00
H2       0.20344    0.30377    0.69863   1.00
H2       0.13308    0.12831    0.68005   1.00
H2       0.19868    0.17239    0.66214   1.00
H2       0.20667    0.12128    0.68101   1.00
C4       0.47074    -0.03144   0.16947   1.00
C4       0.49686    0.02112    0.18451   1.00
C3       0.49743    -0.07548   0.16598   1.00
C3       0.55605    0.03894    0.19624   1.00
C3       0.41549    -0.04026   0.15694   1.00
C3       0.46225    0.05822    0.18820   1.00
C2       0.41728    -0.13428   0.13810   1.00
C2       0.54734    0.12912    0.21430   1.00
C3       0.47173    -0.12523   0.15065   1.00
C3       0.58026    0.09101    0.21086   1.00
C3       0.38946    -0.09159   0.14182   1.00
C3       0.48915    0.11244    0.20238   1.00
H1       0.53618    -0.07286   0.17450   1.00
H1       0.58355    0.01491    0.19443   1.00
C5       0.38643    0.00206    0.15965   1.00
C5       0.40139    0.04153    0.17761   1.00
H1       0.49341    -0.15527   0.14873   1.00
H1       0.62297    0.10127    0.21902   1.00
H1       0.34859    -0.09858   0.13332   1.00
H1       0.46628    0.14134    0.20391   1.00
O3       0.34127    0.00117    0.14548   1.00
O3       0.36007    0.06705    0.18369   1.00
Si1      0.36908    0.05626    0.12691   1.00
Si1      0.30387    0.02735    0.20150   1.00
C6       0.29207    0.02082    0.11309   1.00
C6       0.39001    0.13626    0.13720   1.00
C6       0.43450    0.05520    0.11262   1.00
C6       0.30062    -0.04502   0.21281   1.00
C6       0.32533    0.09082    0.21994   1.00
C6       0.22348    0.00600    0.19149   1.00
C6       0.25472    -0.05834   0.10981   1.00
H2       0.25909    0.02955    0.12324   1.00
C6       0.28819    0.05129    0.09207   1.00
H2       0.35757    0.12166    0.15063   1.00
C6       0.46441    0.18366    0.14501   1.00
C6       0.37212    0.18405    0.12473   1.00
H2       0.41367    0.00071    0.10994   1.00
C6       0.45015    0.08953    0.09117   1.00
C6       0.50683    0.08226    0.12242   1.00
C6       0.28852    -0.10561   0.19871   1.00
C6       0.35738    -0.03533   0.22825   1.00
H2       0.25488    -0.06485   0.22218   1.00
H2       0.37359    0.09898    0.22608   1.00
C6       0.34051    0.16221    0.21196   1.00
C6       0.27593    0.07318    0.23840   1.00
H2       0.22148    0.05302    0.19285   1.00
C6       0.21250    -0.01217   0.16848   1.00
C6       0.15841    -0.05035   0.20258   1.00
H2       0.24494    -0.08555   0.12421   1.00
H2       0.28489    -0.07290   0.10029   1.00
H2       0.20516    -0.07681   0.10253   1.00
H2       0.23785    0.04608    0.09009   1.00
H2       0.32578    0.10506    0.09053   1.00
H2       0.29534    0.02463    0.07933   1.00
H2       0.46688    0.22396    0.15474   1.00
H2       0.48269    0.15600    0.15412   1.00
H2       0.49969    0.20826    0.13243   1.00
H2       0.31796    0.15862    0.12097   1.00
H2       0.38286    0.22954    0.13341   1.00
H2       0.40187    0.20111    0.11074   1.00
H2       0.46026    0.14193    0.09209   1.00
H2       0.49438    0.09066    0.08405   1.00
H2       0.40818    0.06109    0.08073   1.00
H2       0.53962    0.13715    0.12037   1.00
H2       0.50509    0.07229    0.13853   1.00
H2       0.53262    0.05770    0.11528   1.00
H2       0.33576    -0.09721   0.19177   1.00
H2       0.26794    -0.15293   0.20742   1.00
H2       0.25216    -0.11436   0.18667   1.00
H2       0.34322    -0.08334   0.23599   1.00
H2       0.40615    -0.01894   0.22089   1.00
H2       0.36495    0.00141    0.24010   1.00
H2       0.36438    0.20078    0.22384   1.00
H2       0.37600    0.17915    0.19918   1.00
H2       0.29422    0.16177    0.20711   1.00
H2       0.26402    0.02476    0.24538   1.00
H2       0.29942    0.11230    0.25016   1.00
H2       0.22826    0.07062    0.23394   1.00
H2       0.21595    -0.05740   0.16497   1.00
H2       0.16303    -0.02081   0.16323   1.00
H2       0.25113    0.02990    0.15965   1.00
H2       0.11249    -0.05146   0.19689   1.00
H2       0.15207    -0.10097   0.20024   1.00
H2       0.16037    -0.04102   0.21885   1.00
C4       1.02844    0.49341    0.16856   1.00
C4       0.97740    0.46829    0.18405   1.00
C3       1.07989    0.47525    0.16701   1.00
C3       0.97643    0.42756    0.20057   1.00
C3       1.02920    0.54015    0.15389   1.00
C3       0.92395    0.48427    0.18312   1.00
C2       1.13189    0.54905    0.13738   1.00
C2       0.87327    0.42075    0.21502   1.00
C3       1.13043    0.50257    0.15193   1.00
C3       0.92546    0.40389    0.21553   1.00
C3       1.07986    0.56615    0.13856   1.00
C3       0.87476    0.46236    0.19881   1.00
H1       1.08201    0.44145    0.17676   1.00
H1       1.01295    0.41424    0.20229   1.00
C5       0.97918    0.56038    0.15456   1.00
C5       0.92015    0.52250    0.16666   1.00
H1       1.16664    0.48794    0.15166   1.00
H1       0.92701    0.37413    0.22702   1.00
H1       1.07864    0.59815    0.12781   1.00
H1       0.83941    0.47788    0.19861   1.00
O3       0.98665    0.61365    0.14263   1.00
O3       0.86227    0.52702    0.16331   1.00
Si1      1.02394    0.69094    0.15184   1.00
Si1      0.79943    0.46668    0.15049   1.00
C6       1.02814    0.73335    0.12895   1.00
C6       0.96678    0.69530    0.16910   1.00
C6       1.10616    0.71778    0.16159   1.00
C6       0.80734    0.39667    0.14223   1.00
C6       0.73024    0.43790    0.16727   1.00
C6       0.78354    0.50552    0.12967   1.00
C6       1.05530    0.71220    0.11003   1.00
H2       0.97439    0.71505    0.12578   1.00
C6       1.06414    0.81323    0.12803   1.00
H2       0.91761    0.65513    0.16350   1.00
C6       0.97007    0.67771    0.19187   1.00
C6       0.96128    0.76149    0.16958   1.00
H2       1.12928    0.70334    0.14943   1.00
C6       1.15431    0.79621    0.16495   1.00
C6       1.11405    0.68443    0.18156   1.00
C6       0.86976    0.41151    0.12858   1.00
C6       0.79946    0.34122    0.15792   1.00
H2       0.76281    0.36935    0.13245   1.00
H2       0.74203    0.41184    0.17915   1.00
C6       0.72215    0.49450    0.17843   1.00
C6       0.65811    0.38511    0.15895   1.00
H2       0.75269    0.52570    0.13604   1.00
C6       0.84683    0.56850    0.12024   1.00
C6       0.74164    0.45921    0.11142   1.00
H2       1.02579    0.65729    0.10734   1.00
H2       1.10870    0.72630    0.11198   1.00
H2       1.05138    0.73682    0.09624   1.00
H2       1.03838    0.82872    0.11701   1.00
H2       1.06382    0.83602    0.14251   1.00
H2       1.11720    0.83647    0.12313   1.00
H2       0.92386    0.66811    0.19992   1.00
H2       0.97359    0.63177    0.19354   1.00
H2       1.01338    0.71966    0.19959   1.00
H2       0.94880    0.77304    0.15466   1.00
H2       0.92053    0.75567    0.17976   1.00
H2       1.00875    0.80520    0.17488   1.00
H2       1.12977    0.81748    0.17434   1.00
H2       1.20218    0.80761    0.17232   1.00
H2       1.16929    0.82349    0.15062   1.00
H2       1.11123    0.71048    0.19514   1.00
H2       1.07590    0.63110    0.18319   1.00
H2       1.16374    0.68732    0.18177   1.00
H2       0.91518    0.42532    0.13759   1.00
H2       0.85906    0.36621    0.11982   1.00
H2       0.88190    0.45225    0.11773   1.00
H2       0.79599    0.29694    0.15012   1.00
H2       0.84262    0.35999    0.16823   1.00
H2       0.75306    0.32218    0.16692   1.00
H2       0.68560    0.47234    0.19090   1.00
H2       0.77036    0.53312    0.18509   1.00
H2       0.70404    0.52008    0.16827   1.00
H2       0.65841    0.34241    0.15139   1.00
H2       0.62133    0.36372    0.17140   1.00
H2       0.63924    0.40882    0.14831   1.00
H2       0.88333    0.55536    0.11397   1.00
H2       0.83216    0.59191    0.10825   1.00
H2       0.87288    0.60714    0.13180   1.00
H2       0.72637    0.48691    0.10106   1.00
H2       0.77145    0.44217    0.10272   1.00
H2       0.69493    0.41429    0.11646   1.00
C4       0.50683    0.53470    0.16839   1.00
C4       0.53204    0.50896    0.18390   1.00
C3       0.53165    0.60524    0.16512   1.00
C3       0.58005    0.55073    0.19883   1.00
C3       0.45308    0.48772    0.15552   1.00
C3       0.50846    0.43758    0.18467   1.00
C2       0.45084    0.58257    0.13733   1.00
C2       0.57936    0.45281    0.21507   1.00
C3       0.50420    0.62856    0.15010   1.00
C3       0.60356    0.52355    0.21387   1.00
C3       0.42695    0.51230    0.14021   1.00
C3       0.53058    0.41086    0.20047   1.00
H1       0.57056    0.64176    0.17351   1.00
H1       0.59903    0.60206    0.19929   1.00
C5       0.42597    0.41650    0.15798   1.00
C5       0.46251    0.39311    0.16981   1.00
H1       0.52387    0.68015    0.14854   1.00
H1       0.63874    0.55627    0.22416   1.00
H1       0.38970    0.47807    0.13074   1.00
H1       0.50993    0.35920    0.20158   1.00
O3       0.36706    0.37138    0.14794   1.00
O3       0.44966    0.32694    0.16784   1.00
Si1      0.29337    0.34190    0.15919   1.00
Si1      0.50127    0.31269    0.15414   1.00
C6       0.24193    0.30003    0.13793   1.00
C6       0.28744    0.28296    0.17769   1.00
C6       0.27831    0.40664    0.16819   1.00
C6       0.57309    0.38332    0.14317   1.00
C6       0.52854    0.27162    0.17118   1.00
C6       0.45181    0.25360    0.13522   1.00
C6       0.26132    0.34242    0.11778   1.00
H2       0.25360    0.25939    0.13520   1.00
C6       0.16209    0.26369    0.13925   1.00
H2       0.32185    0.26664    0.17164   1.00
C6       0.31368    0.30969    0.19961   1.00
C6       0.21740    0.21601    0.18075   1.00
H2       0.29235    0.44064    0.15510   1.00
C6       0.20285    0.38576    0.17346   1.00
C6       0.32076    0.45196    0.18665   1.00
C6       0.56067    0.43114    0.12887   1.00
C6       0.63547    0.43119    0.15687   1.00
H2       0.59323    0.35872    0.13335   1.00
H2       0.56118    0.31181    0.18178   1.00
C6       0.47171    0.21411    0.18455   1.00
C6       0.57254    0.24197    0.16244   1.00
H2       0.42893    0.20438    0.14293   1.00
C6       0.39028    0.25904    0.12689   1.00
C6       0.48946    0.24675    0.11622   1.00
H2       0.31454    0.36136    0.11367   1.00
H2       0.25361    0.38621    0.11915   1.00
H2       0.23051    0.31125    0.10506   1.00
H2       0.13913    0.21884    0.12939   1.00
H2       0.14279    0.24669    0.15449   1.00
H2       0.14252    0.29655    0.13414   1.00
H2       0.32077    0.27238    0.20821   1.00
H2       0.36291    0.35647    0.19949   1.00
H2       0.27738    0.31884    0.20795   1.00
H2       0.19892    0.18759    0.16659   1.00
H2       0.22186    0.18159    0.19148   1.00
H2       0.17896    0.22716    0.18666   1.00
H2       0.18057    0.34309    0.18409   1.00
H2       0.19907    0.42789    0.18023   1.00
H2       0.17138    0.37188    0.15991   1.00
H2       0.29745    0.42904    0.20118   1.00
H2       0.37268    0.46167    0.18707   1.00
H2       0.32383    0.50169    0.18594   1.00
H2       0.55459    0.46896    0.13740   1.00
H2       0.60412    0.45913    0.11870   1.00
H2       0.51583    0.40287    0.11935   1.00
H2       0.67904    0.46616    0.14755   1.00
H2       0.62433    0.46243    0.16693   1.00
H2       0.65275    0.40271    0.16606   1.00
H2       0.49459    0.19995    0.19687   1.00
H2       0.43914    0.23115    0.19161   1.00
H2       0.43935    0.16822    0.17577   1.00
H2       0.61499    0.27951    0.15333   1.00
H2       0.59458    0.22686    0.17477   1.00
H2       0.54190    0.19687    0.15312   1.00
H2       0.40647    0.30773    0.11941   1.00
H2       0.36002    0.21823    0.11613   1.00
H2       0.35658    0.25424    0.13927   1.00
H2       0.45516    0.20183    0.10726   1.00
H2       0.50816    0.29126    0.10632   1.00
H2       0.53261    0.24069    0.12052   1.00
C4       0.63541    0.80448    0.66392   1.00
C4       0.68799    0.83052    0.64889   1.00
C3       0.59475    0.83434    0.66843   1.00
C3       0.70930    0.89239    0.63820   1.00
C3       0.62304    0.74592    0.67540   1.00
C3       0.72142    0.79300    0.64411   1.00
C2       0.53238    0.75077    0.69524   1.00
C2       0.79578    0.88053    0.61904   1.00
C3       0.54492    0.80850    0.68373   1.00
C3       0.76126    0.91642    0.62355   1.00
C3       0.57166    0.71987    0.69051   1.00
C3       0.77563    0.81957    0.62993   1.00
H1       0.59999    0.87561    0.66068   1.00
H1       0.68800    0.92204    0.64083   1.00
C5       0.66188    0.71360    0.67165   1.00
C5       0.70109    0.72952    0.65361   1.00
H1       0.51742    0.83253    0.68641   1.00
H1       0.77413    0.96119    0.61617   1.00
H1       0.56207    0.67672    0.69823   1.00
H1       0.80194    0.79432    0.62762   1.00
O3       0.65783    0.66460    0.68488   1.00
O3       0.72292    0.68629    0.64643   1.00
Si1      0.71270    0.68626    0.70341   1.00
Si1      0.68094    0.63420    0.62792   1.00
C6       0.67316    0.60684    0.71600   1.00
C6       0.79134    0.70425    0.69272   1.00
C6       0.71604    0.75123    0.71901   1.00
C6       0.61103    0.63773    0.61734   1.00
C6       0.74374    0.65530    0.60928   1.00
C6       0.65478    0.55102    0.63650   1.00
C6       0.59428    0.57310    0.71935   1.00
H2       0.67941    0.57406    0.70510   1.00
C6       0.70212    0.59707    0.73659   1.00
H2       0.77514    0.67418    0.67879   1.00
C6       0.84217    0.77912    0.68593   1.00
C6       0.83609    0.68039    0.70429   1.00
H2       0.66206    0.73296    0.72185   1.00
C6       0.75004    0.76125    0.74039   1.00
C6       0.74715    0.82568    0.71043   1.00
C6       0.55169    0.62686    0.63180   1.00
C6       0.62437    0.69831    0.60298   1.00
H2       0.58886    0.59359    0.60725   1.00
H2       0.75494    0.70557    0.60405   1.00
C6       0.81353    0.66472    0.61680   1.00
C6       0.72349    0.60884    0.59003   1.00
H2       0.69999    0.54603    0.63460   1.00
C6       0.63634    0.53686    0.65943   1.00
C6       0.59610    0.48972    0.62470   1.00
H2       0.56748    0.56741    0.70507   1.00
H2       0.58223    0.60350    0.72962   1.00
H2       0.57302    0.52199    0.72581   1.00
H2       0.69364    0.54519    0.73759   1.00
H2       0.75651    0.63191    0.73832   1.00
H2       0.67680    0.60398    0.74972   1.00
H2       0.88127    0.78067    0.67584   1.00
H2       0.81682    0.80144    0.67750   1.00
H2       0.86820    0.81160    0.69895   1.00
H2       0.80785    0.62562    0.70721   1.00
H2       0.88074    0.68992    0.69536   1.00
H2       0.85446    0.70743    0.71868   1.00
H2       0.80126    0.76830    0.73911   1.00
H2       0.75410    0.80550    0.74839   1.00
H2       0.71967    0.71806    0.75026   1.00
H2       0.80229    0.85542    0.71256   1.00
H2       0.73753    0.82742    0.69441   1.00
H2       0.72517    0.85266    0.71834   1.00
H2       0.56295    0.67375    0.63960   1.00
H2       0.50472    0.61038    0.62319   1.00
H2       0.54067    0.58785    0.64317   1.00
H2       0.57717    0.68832    0.59547   1.00
H2       0.64344    0.74617    0.61115   1.00
H2       0.66039    0.70573    0.59091   1.00
H2       0.85244    0.68882    0.60502   1.00
H2       0.83219    0.69789    0.63011   1.00
H2       0.80991    0.61618    0.62070   1.00
H2       0.67605    0.60107    0.58333   1.00
H2       0.76290    0.63249    0.57835   1.00
H2       0.71773    0.55909    0.59354   1.00
H2       0.59294    0.54284    0.66348   1.00
H2       0.62460    0.48553    0.66375   1.00
H2       0.67947    0.57227    0.66859   1.00
H2       0.59184    0.44146    0.62945   1.00
H2       0.54684    0.48619    0.62744   1.00
H2       0.60535    0.49399    0.60840   1.00
C4       0.16917    0.36157    0.66482   1.00
C4       0.14186    0.30927    0.64971   1.00
C3       0.21430    0.36534    0.68037   1.00
C3       0.15195    0.25221    0.64974   1.00
C3       0.14980    0.41265    0.66470   1.00
C3       0.10230    0.31375    0.63356   1.00
C2       0.21948    0.46701    0.69541   1.00
C2       0.08364    0.20483    0.61887   1.00
C3       0.23848    0.41635    0.69532   1.00
C3       0.12420    0.20174    0.63464   1.00
C3       0.17577    0.46443    0.67969   1.00
C3       0.07237    0.26086    0.61899   1.00
H1       0.23111    0.33127    0.68126   1.00
H1       0.17940    0.24540    0.66080   1.00
C5       0.10485    0.41185    0.64956   1.00
C5       0.09227    0.37057    0.63211   1.00
H1       0.27061    0.41621    0.70628   1.00
H1       0.13367    0.16194    0.63534   1.00
H1       0.16293    0.50182    0.67908   1.00
H1       0.04062    0.26261    0.60828   1.00
O3       0.07744    0.45390    0.65143   1.00
O3       0.06612    0.38279    0.61469   1.00
Si1      0.00315    0.42543    0.66222   1.00
Si1      0.11802    0.42443    0.59611   1.00
C6       0.00426    0.50389    0.66312   1.00
C6       -0.05912   0.36838    0.64511   1.00
C6       -0.00119   0.39255    0.68680   1.00
C6       0.20510    0.44939    0.59886   1.00
C6       0.08333    0.36790    0.57558   1.00
C6       0.10936    0.49609    0.59100   1.00
C6       0.07161    0.56627    0.67131   1.00
H2       0.00215    0.51460    0.64707   1.00
C6       -0.05517   0.50956    0.67346   1.00
H2       -0.03330   0.38635    0.63055   1.00
C6       -0.08079   0.29115    0.64631   1.00
C6       -0.12748   0.36939    0.64307   1.00
H2       0.04562    0.43251    0.69378   1.00
C6       -0.06101   0.38361    0.70082   1.00
C6       -0.00024   0.32404    0.68947   1.00
C6       0.24464    0.49493    0.61745   1.00
C6       0.22778    0.39464    0.59689   1.00
H2       0.22797    0.48181    0.58560   1.00
H2       0.09338    0.32681    0.57933   1.00
C6       0.00416    0.33268    0.57286   1.00
C6       0.11537    0.39481    0.55418   1.00
H2       0.06353    0.47591    0.58165   1.00
C6       0.09464    0.52931    0.60960   1.00
C6       0.16716    0.55622    0.57861   1.00
H2       0.11609    0.57360    0.66276   1.00
H2       0.07983    0.55951    0.68728   1.00
H2       0.07012    0.61362    0.66992   1.00
H2       -0.06308   0.54754    0.66558   1.00
H2       -0.10339   0.46180    0.67330   1.00
H2       -0.04387   0.52620    0.68924   1.00
H2       -0.10778   0.26436    0.63253   1.00
H2       -0.03705   0.28371    0.64765   1.00
H2       -0.11491   0.26623    0.65911   1.00
H2       -0.11823   0.42016    0.63918   1.00
H2       -0.15934   0.33554    0.63091   1.00
H2       -0.15705   0.35261    0.65709   1.00
H2       -0.11029   0.35320    0.69337   1.00
H2       -0.06242   0.35861    0.71517   1.00
H2       -0.05511   0.43261    0.70509   1.00
H2       -0.05125   0.27945    0.68853   1.00
H2       0.03091    0.31706    0.67833   1.00
H2       0.02031    0.32276    0.70438   1.00
H2       0.23681    0.46458    0.63106   1.00
H2       0.29949    0.52276    0.61446   1.00
H2       0.22979    0.53278    0.62081   1.00
H2       0.28338    0.41916    0.59607   1.00
H2       0.21168    0.36009    0.60979   1.00
H2       0.20827    0.36430    0.58311   1.00
H2       -0.01375   0.29045    0.56208   1.00
H2       -0.02249   0.31113    0.58715   1.00
H2       -0.01151   0.36807    0.56722   1.00
H2       0.17081    0.41857    0.55449   1.00
H2       0.09664    0.35269    0.54332   1.00
H2       0.10204    0.43176    0.54832   1.00
H2       0.13612    0.54939    0.62061   1.00
H2       0.08601    0.57074    0.60499   1.00
H2       0.04868    0.49161    0.61725   1.00
H2       0.15113    0.59230    0.57381   1.00
H2       0.21358    0.58439    0.58762   1.00
H2       0.17989    0.53820    0.56486   1.00
C4       0.19250    0.83072    0.66475   1.00
C4       0.16744    0.85800    0.64966   1.00
C3       0.15051    0.78286    0.67968   1.00
C3       0.09925    0.84497    0.64911   1.00
C3       0.26362    0.85296    0.66530   1.00
C3       0.21251    0.90063    0.63412   1.00
C2       0.24762    0.78055    0.69539   1.00
C2       0.12108    0.91633    0.61889   1.00
C3       0.17731    0.75873    0.69465   1.00
C3       0.07650    0.87279    0.63405   1.00
C3       0.28947    0.82704    0.68029   1.00
C3       0.18935    0.93050    0.61959   1.00
H1       0.09918    0.76395    0.68006   1.00
H1       0.06422    0.81523    0.65972   1.00
C5       0.30842    0.90072    0.65081   1.00
C5       0.28057    0.91376    0.63324   1.00
H1       0.14455    0.72454    0.70514   1.00
H1       0.02648    0.86113    0.63431   1.00
H1       0.34028    0.84201    0.68015   1.00
H1       0.22336    0.96435    0.60936   1.00
O3       0.37791    0.93051    0.65339   1.00
O3       0.32064    0.94320    0.61630   1.00
Si1      0.41987    1.00378    0.66502   1.00
Si1      0.31490    0.89440    0.59731   1.00
C6       0.49891    1.00626    0.66649   1.00
C6       0.42427    1.06682    0.64838   1.00
C6       0.38751    1.00365    0.68939   1.00
C6       0.25526    0.80623    0.59899   1.00
C6       0.29336    0.92968    0.57686   1.00
C6       0.39724    0.90728    0.59287   1.00
C6       0.49611    0.93938    0.67418   1.00
H2       0.51386    1.01089    0.65056   1.00
C6       0.56137    1.06602    0.67771   1.00
H2       0.41924    1.04306    0.63360   1.00
C6       0.36625    1.08516    0.64931   1.00
C6       0.49214    1.13699    0.64733   1.00
H2       0.38193    0.95684    0.69599   1.00
C6       0.43496    1.06266    0.70419   1.00
C6       0.31620    0.99910    0.69153   1.00
C6       0.26107    0.76570    0.61735   1.00
C6       0.17740    0.78068    0.59629   1.00
H2       0.26773    0.78601    0.58566   1.00
H2       0.24110    0.91700    0.58016   1.00
C6       0.33482    1.00928    0.57502   1.00
C6       0.29225    0.90084    0.55523   1.00
H2       0.42238    0.95432    0.58403   1.00
C6       0.44331    0.92163    0.61191   1.00
C6       0.40391    0.85257    0.58011   1.00
H2       0.46130    0.89530    0.66505   1.00
H2       0.47925    0.92869    0.68996   1.00
H2       0.54615    0.94332    0.67317   1.00
H2       0.60887    1.07687    0.67024   1.00
H2       0.55953    1.11306    0.67789   1.00
H2       0.56548    1.05333    0.69344   1.00
H2       0.36681    1.11316    0.63573   1.00
H2       0.31587    1.03993    0.64997   1.00
H2       0.37247    1.11729    0.66240   1.00
H2       0.53552    1.13043    0.64369   1.00
H2       0.49004    1.16945    0.63539   1.00
H2       0.50210    1.16471    0.66164   1.00
H2       0.45277    1.11250    0.69722   1.00
H2       0.40903    1.06115    0.71835   1.00
H2       0.47881    1.05843    0.70874   1.00
H2       0.32041    1.04924    0.69099   1.00
H2       0.28006    0.96829    0.67990   1.00
H2       0.29307    0.97620    0.70612   1.00
H2       0.23602    0.77060    0.63082   1.00
H2       0.23645    0.71132    0.61379   1.00
H2       0.31383    0.78226    0.62120   1.00
H2       0.14841    0.72512    0.59487   1.00
H2       0.15621    0.79392    0.60915   1.00
H2       0.16705    0.80088    0.58258   1.00
H2       0.31038    1.02691    0.56419   1.00
H2       0.33702    1.03375    0.58951   1.00
H2       0.38695    1.02766    0.56988   1.00
H2       0.26250    0.84525    0.55492   1.00
H2       0.26873    0.91931    0.54433   1.00
H2       0.34373    0.91693    0.54985   1.00
H2       0.42211    0.87883    0.62247   1.00
H2       0.49464    0.93298    0.60775   1.00
H2       0.44861    0.96589    0.61993   1.00
H2       0.45702    0.87126    0.57581   1.00
H2       0.38641    0.80535    0.58866   1.00
H2       0.37473    0.84038    0.56606   1.00
