data_IRMOF10_interpen_symm_ligand1cp_symm_m

_audit_creation_method             'generated by an auxiliary program of Tobunporous'

_symmetry_space_group_name_H-M     'P 1'
_symmetry_Int_Tables_number        1
_symmetry_cell_setting             triclinic

_cell_length_a                    22.6523
_cell_length_b                    22.6523
_cell_length_c                    65.9502
_cell_angle_alpha                 90.0000
_cell_angle_beta                  90.0000
_cell_angle_gamma                 120.0000

loop_
_atom_site_label
_atom_site_fract_x
_atom_site_fract_y
_atom_site_fract_z
_atom_site_occupancy
O1       0.00000    0.00000    0.57470   1.00
Zn      0.00000    0.00000    0.54560   1.00
Zn      0.94843    0.04287    0.58357   1.00
Zn      0.09443    0.05157    0.58357   1.00
Zn      0.95713    0.90557    0.58357   1.00
O2       0.93860    0.02610    0.53560   1.00
O2       0.08750    0.06140    0.53560   1.00
O2       0.97390    0.91250    0.53560   1.00
O2       0.91300    0.07160    0.56150   1.00
O2       0.00463    0.12027    0.60077   1.00
O2       0.87413    0.98077    0.60037   1.00
O2       0.15860    0.08700    0.56150   1.00
O2       0.10663    0.12587    0.60037   1.00
O2       0.11563    0.99537    0.60077   1.00
O2       0.92840    0.84140    0.56150   1.00
O2       0.87973    0.88437    0.60077   1.00
O2       0.01923    0.89337    0.60037   1.00
C1       0.91390    0.06020    0.54330   1.00
C1       0.14630    0.08610    0.54330   1.00
C1       0.93980    0.85370    0.54330   1.00
C1       0.06663    0.14397    0.60637   1.00
C1       0.85603    0.92267    0.60637   1.00
C1       0.07733    0.93337    0.60637   1.00
O1       0.00000    0.00000    0.92530   1.00
Zn      0.00000    0.00000    0.95440   1.00
Zn      0.04287    0.94843    0.91643   1.00
Zn      0.05157    0.09443    0.91643   1.00
Zn      0.90557    0.95713    0.91643   1.00
O2       0.02610    0.93860    0.96440   1.00
O2       0.06140    0.08750    0.96440   1.00
O2       0.91250    0.97390    0.96440   1.00
O2       0.07160    0.91300    0.93850   1.00
O2       0.12027    0.00463    0.89923   1.00
O2       0.98077    0.87413    0.89963   1.00
O2       0.08700    0.15860    0.93850   1.00
O2       0.12587    0.10663    0.89963   1.00
O2       0.99537    0.11563    0.89923   1.00
O2       0.84140    0.92840    0.93850   1.00
O2       0.88437    0.87973    0.89923   1.00
O2       0.89337    0.01923    0.89963   1.00
C1       0.06020    0.91390    0.95670   1.00
C1       0.08610    0.14630    0.95670   1.00
C1       0.85370    0.93980    0.95670   1.00
C1       0.14397    0.06663    0.89363   1.00
C1       0.92267    0.85603    0.89363   1.00
C1       0.93337    0.07733    0.89363   1.00
O1       0.00000    0.00000    0.42530   1.00
Zn      0.00000    0.00000    0.45440   1.00
Zn      0.05157    0.95713    0.41643   1.00
Zn      0.90557    0.94843    0.41643   1.00
Zn      0.04287    0.09443    0.41643   1.00
O2       0.06140    0.97390    0.46440   1.00
O2       0.91250    0.93860    0.46440   1.00
O2       0.02610    0.08750    0.46440   1.00
O2       0.08700    0.92840    0.43850   1.00
O2       0.99537    0.87973    0.39923   1.00
O2       0.12587    0.01923    0.39963   1.00
O2       0.84140    0.91300    0.43850   1.00
O2       0.89337    0.87413    0.39963   1.00
O2       0.88437    0.00463    0.39923   1.00
O2       0.07160    0.15860    0.43850   1.00
O2       0.12027    0.11563    0.39923   1.00
O2       0.98077    0.10663    0.39963   1.00
C1       0.08610    0.93980    0.45670   1.00
C1       0.85370    0.91390    0.45670   1.00
C1       0.06020    0.14630    0.45670   1.00
C1       0.93337    0.85603    0.39363   1.00
C1       0.14397    0.07733    0.39363   1.00
C1       0.92267    0.06663    0.39363   1.00
O1       0.00000    0.00000    0.07470   1.00
Zn      0.00000    0.00000    0.04560   1.00
Zn      0.95713    0.05157    0.08357   1.00
Zn      0.94843    0.90557    0.08357   1.00
Zn      0.09443    0.04287    0.08357   1.00
O2       0.97390    0.06140    0.03560   1.00
O2       0.93860    0.91250    0.03560   1.00
O2       0.08750    0.02610    0.03560   1.00
O2       0.92840    0.08700    0.06150   1.00
O2       0.87973    0.99537    0.10077   1.00
O2       0.01923    0.12587    0.10037   1.00
O2       0.91300    0.84140    0.06150   1.00
O2       0.87413    0.89337    0.10037   1.00
O2       0.00463    0.88437    0.10077   1.00
O2       0.15860    0.07160    0.06150   1.00
O2       0.11563    0.12027    0.10077   1.00
O2       0.10663    0.98077    0.10037   1.00
C1       0.93980    0.08610    0.04330   1.00
C1       0.91390    0.85370    0.04330   1.00
C1       0.14630    0.06020    0.04330   1.00
C1       0.85603    0.93337    0.10637   1.00
C1       0.07733    0.14397    0.10637   1.00
C1       0.06663    0.92267    0.10637   1.00
O1       0.66667    0.33333    0.90803   1.00
Zn      0.66667    0.33333    0.87893   1.00
Zn      0.61510    0.37620    0.91690   1.00
Zn      0.76110    0.38490    0.91690   1.00
Zn      0.62380    0.23890    0.91690   1.00
O2       0.60527    0.35943    0.86893   1.00
O2       0.75417    0.39473    0.86893   1.00
O2       0.64057    0.24583    0.86893   1.00
O2       0.57967    0.40493    0.89483   1.00
O2       0.67130    0.45360    0.93410   1.00
O2       0.54080    0.31410    0.93370   1.00
O2       0.82527    0.42033    0.89483   1.00
O2       0.77330    0.45920    0.93370   1.00
O2       0.78230    0.32870    0.93410   1.00
O2       0.59507    0.17473    0.89483   1.00
O2       0.54640    0.21770    0.93410   1.00
O2       0.68590    0.22670    0.93370   1.00
C1       0.58057    0.39353    0.87663   1.00
C1       0.81297    0.41943    0.87663   1.00
C1       0.60647    0.18703    0.87663   1.00
C1       0.73330    0.47730    0.93970   1.00
C1       0.52270    0.25600    0.93970   1.00
C1       0.74400    0.26670    0.93970   1.00
O1       0.66667    0.33333    0.25863   1.00
Zn      0.66667    0.33333    0.28773   1.00
Zn      0.70953    0.28177    0.24977   1.00
Zn      0.71823    0.42777    0.24977   1.00
Zn      0.57223    0.29047    0.24977   1.00
O2       0.69277    0.27193    0.29773   1.00
O2       0.72807    0.42083    0.29773   1.00
O2       0.57917    0.30723    0.29773   1.00
O2       0.73827    0.24633    0.27183   1.00
O2       0.78693    0.33797    0.23257   1.00
O2       0.64743    0.20747    0.23297   1.00
O2       0.75367    0.49193    0.27183   1.00
O2       0.79253    0.43997    0.23297   1.00
O2       0.66203    0.44897    0.23257   1.00
O2       0.50807    0.26173    0.27183   1.00
O2       0.55103    0.21307    0.23257   1.00
O2       0.56003    0.35257    0.23297   1.00
C1       0.72687    0.24723    0.29003   1.00
C1       0.75277    0.47963    0.29003   1.00
C1       0.52037    0.27313    0.29003   1.00
C1       0.81063    0.39997    0.22697   1.00
C1       0.58933    0.18937    0.22697   1.00
C1       0.60003    0.41067    0.22697   1.00
O1       0.66667    0.33333    0.75863   1.00
Zn      0.66667    0.33333    0.78773   1.00
Zn      0.71823    0.29047    0.74977   1.00
Zn      0.57223    0.28177    0.74977   1.00
Zn      0.70953    0.42777    0.74977   1.00
O2       0.72807    0.30723    0.79773   1.00
O2       0.57917    0.27193    0.79773   1.00
O2       0.69277    0.42083    0.79773   1.00
O2       0.75367    0.26173    0.77183   1.00
O2       0.66203    0.21307    0.73257   1.00
O2       0.79253    0.35257    0.73297   1.00
O2       0.50807    0.24633    0.77183   1.00
O2       0.56003    0.20747    0.73297   1.00
O2       0.55103    0.33797    0.73257   1.00
O2       0.73827    0.49193    0.77183   1.00
O2       0.78693    0.44897    0.73257   1.00
O2       0.64743    0.43997    0.73297   1.00
C1       0.75277    0.27313    0.79003   1.00
C1       0.52037    0.24723    0.79003   1.00
C1       0.72687    0.47963    0.79003   1.00
C1       0.60003    0.18937    0.72697   1.00
C1       0.81063    0.41067    0.72697   1.00
C1       0.58933    0.39997    0.72697   1.00
O1       0.66667    0.33333    0.40803   1.00
Zn      0.66667    0.33333    0.37893   1.00
Zn      0.62380    0.38490    0.41690   1.00
Zn      0.61510    0.23890    0.41690   1.00
Zn      0.76110    0.37620    0.41690   1.00
O2       0.64057    0.39473    0.36893   1.00
O2       0.60527    0.24583    0.36893   1.00
O2       0.75417    0.35943    0.36893   1.00
O2       0.59507    0.42033    0.39483   1.00
O2       0.54640    0.32870    0.43410   1.00
O2       0.68590    0.45920    0.43370   1.00
O2       0.57967    0.17473    0.39483   1.00
O2       0.54080    0.22670    0.43370   1.00
O2       0.67130    0.21770    0.43410   1.00
O2       0.82527    0.40493    0.39483   1.00
O2       0.78230    0.45360    0.43410   1.00
O2       0.77330    0.31410    0.43370   1.00
C1       0.60647    0.41943    0.37663   1.00
C1       0.58057    0.18703    0.37663   1.00
C1       0.81297    0.39353    0.37663   1.00
C1       0.52270    0.26670    0.43970   1.00
C1       0.74400    0.47730    0.43970   1.00
C1       0.73330    0.25600    0.43970   1.00
O1       0.33333    0.66667    0.24137   1.00
Zn      0.33333    0.66667    0.21227   1.00
Zn      0.28177    0.70953    0.25023   1.00
Zn      0.42777    0.71823    0.25023   1.00
Zn      0.29047    0.57223    0.25023   1.00
O2       0.27193    0.69277    0.20227   1.00
O2       0.42083    0.72807    0.20227   1.00
O2       0.30723    0.57917    0.20227   1.00
O2       0.24633    0.73827    0.22817   1.00
O2       0.33797    0.78693    0.26743   1.00
O2       0.20747    0.64743    0.26703   1.00
O2       0.49193    0.75367    0.22817   1.00
O2       0.43997    0.79253    0.26703   1.00
O2       0.44897    0.66203    0.26743   1.00
O2       0.26173    0.50807    0.22817   1.00
O2       0.21307    0.55103    0.26743   1.00
O2       0.35257    0.56003    0.26703   1.00
C1       0.24723    0.72687    0.20997   1.00
C1       0.47963    0.75277    0.20997   1.00
C1       0.27313    0.52037    0.20997   1.00
C1       0.39997    0.81063    0.27303   1.00
C1       0.18937    0.58933    0.27303   1.00
C1       0.41067    0.60003    0.27303   1.00
O1       0.33333    0.66667    0.59197   1.00
Zn      0.33333    0.66667    0.62107   1.00
Zn      0.37620    0.61510    0.58310   1.00
Zn      0.38490    0.76110    0.58310   1.00
Zn      0.23890    0.62380    0.58310   1.00
O2       0.35943    0.60527    0.63107   1.00
O2       0.39473    0.75417    0.63107   1.00
O2       0.24583    0.64057    0.63107   1.00
O2       0.40493    0.57967    0.60517   1.00
O2       0.45360    0.67130    0.56590   1.00
O2       0.31410    0.54080    0.56630   1.00
O2       0.42033    0.82527    0.60517   1.00
O2       0.45920    0.77330    0.56630   1.00
O2       0.32870    0.78230    0.56590   1.00
O2       0.17473    0.59507    0.60517   1.00
O2       0.21770    0.54640    0.56590   1.00
O2       0.22670    0.68590    0.56630   1.00
C1       0.39353    0.58057    0.62337   1.00
C1       0.41943    0.81297    0.62337   1.00
C1       0.18703    0.60647    0.62337   1.00
C1       0.47730    0.73330    0.56030   1.00
C1       0.25600    0.52270    0.56030   1.00
C1       0.26670    0.74400    0.56030   1.00
O1       0.33333    0.66667    0.09197   1.00
Zn      0.33333    0.66667    0.12107   1.00
Zn      0.38490    0.62380    0.08310   1.00
Zn      0.23890    0.61510    0.08310   1.00
Zn      0.37620    0.76110    0.08310   1.00
O2       0.39473    0.64057    0.13107   1.00
O2       0.24583    0.60527    0.13107   1.00
O2       0.35943    0.75417    0.13107   1.00
O2       0.42033    0.59507    0.10517   1.00
O2       0.32870    0.54640    0.06590   1.00
O2       0.45920    0.68590    0.06630   1.00
O2       0.17473    0.57967    0.10517   1.00
O2       0.22670    0.54080    0.06630   1.00
O2       0.21770    0.67130    0.06590   1.00
O2       0.40493    0.82527    0.10517   1.00
O2       0.45360    0.78230    0.06590   1.00
O2       0.31410    0.77330    0.06630   1.00
C1       0.41943    0.60647    0.12337   1.00
C1       0.18703    0.58057    0.12337   1.00
C1       0.39353    0.81297    0.12337   1.00
C1       0.26670    0.52270    0.06030   1.00
C1       0.47730    0.74400    0.06030   1.00
C1       0.25600    0.73330    0.06030   1.00
O1       0.33333    0.66667    0.74137   1.00
Zn      0.33333    0.66667    0.71227   1.00
Zn      0.29047    0.71823    0.75023   1.00
Zn      0.28177    0.57223    0.75023   1.00
Zn      0.42777    0.70953    0.75023   1.00
O2       0.30723    0.72807    0.70227   1.00
O2       0.27193    0.57917    0.70227   1.00
O2       0.42083    0.69277    0.70227   1.00
O2       0.26173    0.75367    0.72817   1.00
O2       0.21307    0.66203    0.76743   1.00
O2       0.35257    0.79253    0.76703   1.00
O2       0.24633    0.50807    0.72817   1.00
O2       0.20747    0.56003    0.76703   1.00
O2       0.33797    0.55103    0.76743   1.00
O2       0.49193    0.73827    0.72817   1.00
O2       0.44897    0.78693    0.76743   1.00
O2       0.43997    0.64743    0.76703   1.00
C1       0.27313    0.75277    0.70997   1.00
C1       0.24723    0.52037    0.70997   1.00
C1       0.47963    0.72687    0.70997   1.00
C1       0.18937    0.60003    0.77303   1.00
C1       0.41067    0.81063    0.77303   1.00
C1       0.39997    0.58933    0.77303   1.00
C2       0.80435    0.54427    0.45242   1.00
C3       0.83945    0.61042    0.44813   1.00
H1       0.84920    0.62379    0.43465   1.00
C3       0.78906    0.52594    0.47217   1.00
H1       0.76367    0.47993    0.47548   1.00
C4       0.86176    0.65998    0.46287   1.00
C5       0.90163    0.73576    0.45798   1.00
H2       0.87048    0.75178    0.45511   1.00
H2       0.92999    0.74304    0.44636   1.00
H2       0.92963    0.76020    0.46935   1.00
C4       0.81021    0.57388    0.48748   1.00
C5       0.79106    0.55231    0.50995   1.00
H2       0.82730    0.54943    0.51648   1.00
H2       0.74997    0.50889    0.51053   1.00
H2       0.78397    0.58568    0.51678   1.00
C6       0.84602    0.64191    0.48289   1.00
C6       0.86794    0.69379    0.49919   1.00
C4       0.82782    0.72173    0.50445   1.00
C5       0.75883    0.69388    0.49558   1.00
H2       0.76157    0.71877    0.48351   1.00
H2       0.72955    0.69807    0.50516   1.00
H2       0.74098    0.64650    0.49227   1.00
C4       0.93024    0.71405    0.50853   1.00
C5       0.97704    0.68586    0.50313   1.00
H2       0.96452    0.64552    0.51103   1.00
H2       0.02344    0.71949    0.50600   1.00
H2       0.97232    0.67444    0.48900   1.00
C3       0.85141    0.77238    0.51907   1.00
H1       0.82412    0.79050    0.52287   1.00
C3       0.95187    0.76818    0.52321   1.00
H1       0.99377    0.78396    0.52954   1.00
C2       0.91370    0.79640    0.52810   1.00
C2       0.45573    0.26008    0.45242   1.00
C3       0.38958    0.22903    0.44813   1.00
H1       0.37621    0.22541    0.43465   1.00
C3       0.47406    0.26312    0.47217   1.00
H1       0.52007    0.28374    0.47548   1.00
C4       0.34002    0.20178    0.46287   1.00
C5       0.26424    0.16587    0.45798   1.00
H2       0.24822    0.11870    0.45511   1.00
H2       0.25696    0.18695    0.44636   1.00
H2       0.23980    0.16943    0.46935   1.00
C4       0.42612    0.23633    0.48748   1.00
C5       0.44769    0.23875    0.50995   1.00
H2       0.45057    0.27787    0.51648   1.00
H2       0.49111    0.24108    0.51053   1.00
H2       0.41432    0.19829    0.51678   1.00
C6       0.35809    0.20411    0.48289   1.00
C6       0.30621    0.17415    0.49919   1.00
C4       0.27827    0.10609    0.50445   1.00
C5       0.30612    0.06495    0.49558   1.00
H2       0.28123    0.04280    0.48351   1.00
H2       0.30193    0.03148    0.50516   1.00
H2       0.35350    0.09448    0.49227   1.00
C4       0.28595    0.21619    0.50853   1.00
C5       0.31414    0.29118    0.50313   1.00
H2       0.35448    0.31900    0.51103   1.00
H2       0.28051    0.30395    0.50600   1.00
H2       0.32556    0.29788    0.48900   1.00
C3       0.22762    0.07903    0.51907   1.00
H1       0.20950    0.03362    0.52287   1.00
C3       0.23182    0.18369    0.52321   1.00
H1       0.21604    0.20981    0.52954   1.00
C2       0.20360    0.11730    0.52810   1.00
C2       0.73992    0.19565    0.45242   1.00
C3       0.77097    0.16055    0.44813   1.00
H1       0.77459    0.15080    0.43465   1.00
C3       0.73688    0.21094    0.47217   1.00
H1       0.71626    0.23633    0.47548   1.00
C4       0.79822    0.13824    0.46287   1.00
C5       0.83413    0.09837    0.45798   1.00
H2       0.88130    0.12952    0.45511   1.00
H2       0.81305    0.07001    0.44636   1.00
H2       0.83057    0.07037    0.46935   1.00
C4       0.76367    0.18979    0.48748   1.00
C5       0.76125    0.20894    0.50995   1.00
H2       0.72213    0.17270    0.51648   1.00
H2       0.75892    0.25003    0.51053   1.00
H2       0.80171    0.21603    0.51678   1.00
C6       0.79589    0.15398    0.48289   1.00
C6       0.82585    0.13206    0.49919   1.00
C4       0.89391    0.17218    0.50445   1.00
C5       0.93505    0.24117    0.49558   1.00
H2       0.95720    0.23843    0.48351   1.00
H2       0.96852    0.27045    0.50516   1.00
H2       0.90552    0.25902    0.49227   1.00
C4       0.78381    0.06976    0.50853   1.00
C5       0.70882    0.02296    0.50313   1.00
H2       0.68100    0.03548    0.51103   1.00
H2       0.69605    -0.02344   0.50600   1.00
H2       0.70212    0.02768    0.48900   1.00
C3       0.92097    0.14859    0.51907   1.00
H1       0.96638    0.17588    0.52287   1.00
C3       0.81631    0.04813    0.52321   1.00
H1       0.79019    0.00623    0.52954   1.00
C2       0.88270    0.08630    0.52810   1.00
C2       0.54427    0.80435    0.04758   1.00
C3       0.61042    0.83945    0.05187   1.00
H1       0.62379    0.84920    0.06535   1.00
C3       0.52594    0.78906    0.02783   1.00
H1       0.47993    0.76367    0.02452   1.00
C4       0.65998    0.86176    0.03713   1.00
C5       0.73576    0.90163    0.04202   1.00
H2       0.75178    0.87048    0.04489   1.00
H2       0.74304    0.92999    0.05364   1.00
H2       0.76020    0.92963    0.03065   1.00
C4       0.57388    0.81021    0.01252   1.00
C5       0.55231    0.79106    0.99005   1.00
H2       0.54943    0.82730    0.98352   1.00
H2       0.50889    0.74997    0.98947   1.00
H2       0.58568    0.78397    0.98322   1.00
C6       0.64191    0.84602    0.01711   1.00
C6       0.69379    0.86794    0.00081   1.00
C4       0.72173    0.82782    0.99555   1.00
C5       0.69388    0.75883    0.00442   1.00
H2       0.71877    0.76157    0.01649   1.00
H2       0.69807    0.72955    0.99484   1.00
H2       0.64650    0.74098    0.00773   1.00
C4       0.71405    0.93024    0.99147   1.00
C5       0.68586    0.97704    0.99687   1.00
H2       0.64552    0.96452    0.98897   1.00
H2       0.71949    0.02344    0.99400   1.00
H2       0.67444    0.97232    0.01100   1.00
C3       0.77238    0.85141    0.98093   1.00
H1       0.79050    0.82412    0.97713   1.00
C3       0.76818    0.95187    0.97679   1.00
H1       0.78396    0.99377    0.97046   1.00
C2       0.79640    0.91370    0.97190   1.00
C2       0.26008    0.45573    0.04758   1.00
C3       0.22903    0.38958    0.05187   1.00
H1       0.22541    0.37621    0.06535   1.00
C3       0.26312    0.47406    0.02783   1.00
H1       0.28374    0.52007    0.02452   1.00
C4       0.20178    0.34002    0.03713   1.00
C5       0.16587    0.26424    0.04202   1.00
H2       0.11870    0.24822    0.04489   1.00
H2       0.18695    0.25696    0.05364   1.00
H2       0.16943    0.23980    0.03065   1.00
C4       0.23633    0.42612    0.01252   1.00
C5       0.23875    0.44769    0.99005   1.00
H2       0.27787    0.45057    0.98352   1.00
H2       0.24108    0.49111    0.98947   1.00
H2       0.19829    0.41432    0.98322   1.00
C6       0.20411    0.35809    0.01711   1.00
C6       0.17415    0.30621    0.00081   1.00
C4       0.10609    0.27827    0.99555   1.00
C5       0.06495    0.30612    0.00442   1.00
H2       0.04280    0.28123    0.01649   1.00
H2       0.03148    0.30193    0.99484   1.00
H2       0.09448    0.35350    0.00773   1.00
C4       0.21619    0.28595    0.99147   1.00
C5       0.29118    0.31414    0.99687   1.00
H2       0.31900    0.35448    0.98897   1.00
H2       0.30395    0.28051    0.99400   1.00
H2       0.29788    0.32556    0.01100   1.00
C3       0.07903    0.22762    0.98093   1.00
H1       0.03362    0.20950    0.97713   1.00
C3       0.18369    0.23182    0.97679   1.00
H1       0.20981    0.21604    0.97046   1.00
C2       0.11730    0.20360    0.97190   1.00
C2       0.19565    0.73992    0.04758   1.00
C3       0.16055    0.77097    0.05187   1.00
H1       0.15080    0.77459    0.06535   1.00
C3       0.21094    0.73688    0.02783   1.00
H1       0.23633    0.71626    0.02452   1.00
C4       0.13824    0.79822    0.03713   1.00
C5       0.09837    0.83413    0.04202   1.00
H2       0.12952    0.88130    0.04489   1.00
H2       0.07001    0.81305    0.05364   1.00
H2       0.07037    0.83057    0.03065   1.00
C4       0.18979    0.76367    0.01252   1.00
C5       0.20894    0.76125    0.99005   1.00
H2       0.17270    0.72213    0.98352   1.00
H2       0.25003    0.75892    0.98947   1.00
H2       0.21603    0.80171    0.98322   1.00
C6       0.15398    0.79589    0.01711   1.00
C6       0.13206    0.82585    0.00081   1.00
C4       0.17218    0.89391    0.99555   1.00
C5       0.24117    0.93505    0.00442   1.00
H2       0.23843    0.95720    0.01649   1.00
H2       0.27045    0.96852    0.99484   1.00
H2       0.25902    0.90552    0.00773   1.00
C4       0.06976    0.78381    0.99147   1.00
C5       0.02296    0.70882    0.99687   1.00
H2       0.03548    0.68100    0.98897   1.00
H2       -0.02344   0.69605    0.99400   1.00
H2       0.02768    0.70212    0.01100   1.00
C3       0.14859    0.92097    0.98093   1.00
H1       0.17588    0.96638    0.97713   1.00
C3       0.04813    0.81631    0.97679   1.00
H1       0.00623    0.79019    0.97046   1.00
C2       0.08630    0.88270    0.97190   1.00
C2       0.19565    0.45573    0.54758   1.00
C3       0.16055    0.38958    0.55187   1.00
H1       0.15080    0.37621    0.56535   1.00
C3       0.21094    0.47406    0.52783   1.00
H1       0.23633    0.52007    0.52452   1.00
C4       0.13824    0.34002    0.53713   1.00
C5       0.09837    0.26424    0.54202   1.00
H2       0.12952    0.24822    0.54489   1.00
H2       0.07001    0.25696    0.55364   1.00
H2       0.07037    0.23980    0.53065   1.00
C4       0.18979    0.42612    0.51252   1.00
C5       0.20894    0.44769    0.49005   1.00
H2       0.17270    0.45057    0.48352   1.00
H2       0.25003    0.49111    0.48947   1.00
H2       0.21603    0.41432    0.48322   1.00
C6       0.15398    0.35809    0.51711   1.00
C6       0.13206    0.30621    0.50081   1.00
C4       0.17218    0.27827    0.49555   1.00
C5       0.24117    0.30612    0.50442   1.00
H2       0.23843    0.28123    0.51649   1.00
H2       0.27045    0.30193    0.49484   1.00
H2       0.25902    0.35350    0.50773   1.00
C4       0.06976    0.28595    0.49147   1.00
C5       0.02296    0.31414    0.49687   1.00
H2       0.03548    0.35448    0.48897   1.00
H2       -0.02344   0.28051    0.49400   1.00
H2       0.02768    0.32556    0.51100   1.00
C3       0.14859    0.22762    0.48093   1.00
H1       0.17588    0.20950    0.47713   1.00
C3       0.04813    0.23182    0.47679   1.00
H1       0.00623    0.21604    0.47046   1.00
C2       0.08630    0.20360    0.47190   1.00
C2       0.54427    0.73992    0.54758   1.00
C3       0.61042    0.77097    0.55187   1.00
H1       0.62379    0.77459    0.56535   1.00
C3       0.52594    0.73688    0.52783   1.00
H1       0.47993    0.71626    0.52452   1.00
C4       0.65998    0.79822    0.53713   1.00
C5       0.73576    0.83413    0.54202   1.00
H2       0.75178    0.88130    0.54489   1.00
H2       0.74304    0.81305    0.55364   1.00
H2       0.76020    0.83057    0.53065   1.00
C4       0.57388    0.76367    0.51252   1.00
C5       0.55231    0.76125    0.49005   1.00
H2       0.54943    0.72213    0.48352   1.00
H2       0.50889    0.75892    0.48947   1.00
H2       0.58568    0.80171    0.48322   1.00
C6       0.64191    0.79589    0.51711   1.00
C6       0.69379    0.82585    0.50081   1.00
C4       0.72173    0.89391    0.49555   1.00
C5       0.69388    0.93505    0.50442   1.00
H2       0.71877    0.95720    0.51649   1.00
H2       0.69807    0.96852    0.49484   1.00
H2       0.64650    0.90552    0.50773   1.00
C4       0.71405    0.78381    0.49147   1.00
C5       0.68586    0.70882    0.49687   1.00
H2       0.64552    0.68100    0.48897   1.00
H2       0.71949    0.69605    0.49400   1.00
H2       0.67444    0.70212    0.51100   1.00
C3       0.77238    0.92097    0.48093   1.00
H1       0.79050    0.96638    0.47713   1.00
C3       0.76818    0.81631    0.47679   1.00
H1       0.78396    0.79019    0.47046   1.00
C2       0.79640    0.88270    0.47190   1.00
C2       0.26008    0.80435    0.54758   1.00
C3       0.22903    0.83945    0.55187   1.00
H1       0.22541    0.84920    0.56535   1.00
C3       0.26312    0.78906    0.52783   1.00
H1       0.28374    0.76367    0.52452   1.00
C4       0.20178    0.86176    0.53713   1.00
C5       0.16587    0.90163    0.54202   1.00
H2       0.11870    0.87048    0.54489   1.00
H2       0.18695    0.92999    0.55364   1.00
H2       0.16943    0.92963    0.53065   1.00
C4       0.23633    0.81021    0.51252   1.00
C5       0.23875    0.79106    0.49005   1.00
H2       0.27787    0.82730    0.48352   1.00
H2       0.24108    0.74997    0.48947   1.00
H2       0.19829    0.78397    0.48322   1.00
C6       0.20411    0.84602    0.51711   1.00
C6       0.17415    0.86794    0.50081   1.00
C4       0.10609    0.82782    0.49555   1.00
C5       0.06495    0.75883    0.50442   1.00
H2       0.04280    0.76157    0.51649   1.00
H2       0.03148    0.72955    0.49484   1.00
H2       0.09448    0.74098    0.50773   1.00
C4       0.21619    0.93024    0.49147   1.00
C5       0.29118    0.97704    0.49687   1.00
H2       0.31900    0.96452    0.48897   1.00
H2       0.30395    0.02344    0.49400   1.00
H2       0.29788    0.97232    0.51100   1.00
C3       0.07903    0.85141    0.48093   1.00
H1       0.03362    0.82412    0.47713   1.00
C3       0.18369    0.95187    0.47679   1.00
H1       0.20981    0.99377    0.47046   1.00
C2       0.11730    0.91370    0.47190   1.00
C2       0.45573    0.19565    0.95242   1.00
C3       0.38958    0.16055    0.94813   1.00
H1       0.37621    0.15080    0.93465   1.00
C3       0.47406    0.21094    0.97217   1.00
H1       0.52007    0.23633    0.97548   1.00
C4       0.34002    0.13824    0.96287   1.00
C5       0.26424    0.09837    0.95798   1.00
H2       0.24822    0.12952    0.95511   1.00
H2       0.25696    0.07001    0.94636   1.00
H2       0.23980    0.07037    0.96935   1.00
C4       0.42612    0.18979    0.98748   1.00
C5       0.44769    0.20894    0.00995   1.00
H2       0.45057    0.17270    0.01648   1.00
H2       0.49111    0.25003    0.01053   1.00
H2       0.41432    0.21603    0.01678   1.00
C6       0.35809    0.15398    0.98289   1.00
C6       0.30621    0.13206    0.99919   1.00
C4       0.27827    0.17218    0.00445   1.00
C5       0.30612    0.24117    0.99558   1.00
H2       0.28123    0.23843    0.98351   1.00
H2       0.30193    0.27045    0.00516   1.00
H2       0.35350    0.25902    0.99227   1.00
C4       0.28595    0.06976    0.00853   1.00
C5       0.31414    0.02296    0.00313   1.00
H2       0.35448    0.03548    0.01103   1.00
H2       0.28051    -0.02344   0.00600   1.00
H2       0.32556    0.02768    0.98900   1.00
C3       0.22762    0.14859    0.01907   1.00
H1       0.20950    0.17588    0.02287   1.00
C3       0.23182    0.04813    0.02321   1.00
H1       0.21604    0.00623    0.02954   1.00
C2       0.20360    0.08630    0.02810   1.00
C2       0.73992    0.54427    0.95242   1.00
C3       0.77097    0.61042    0.94813   1.00
H1       0.77459    0.62379    0.93465   1.00
C3       0.73688    0.52594    0.97217   1.00
H1       0.71626    0.47993    0.97548   1.00
C4       0.79822    0.65998    0.96287   1.00
C5       0.83413    0.73576    0.95798   1.00
H2       0.88130    0.75178    0.95511   1.00
H2       0.81305    0.74304    0.94636   1.00
H2       0.83057    0.76020    0.96935   1.00
C4       0.76367    0.57388    0.98748   1.00
C5       0.76125    0.55231    0.00995   1.00
H2       0.72213    0.54943    0.01648   1.00
H2       0.75892    0.50889    0.01053   1.00
H2       0.80171    0.58568    0.01678   1.00
C6       0.79589    0.64191    0.98289   1.00
C6       0.82585    0.69379    0.99919   1.00
C4       0.89391    0.72173    0.00445   1.00
C5       0.93505    0.69388    0.99558   1.00
H2       0.95720    0.71877    0.98351   1.00
H2       0.96852    0.69807    0.00516   1.00
H2       0.90552    0.64650    0.99227   1.00
C4       0.78381    0.71405    0.00853   1.00
C5       0.70882    0.68586    0.00313   1.00
H2       0.68100    0.64552    0.01103   1.00
H2       0.69605    0.71949    0.00600   1.00
H2       0.70212    0.67444    0.98900   1.00
C3       0.92097    0.77238    0.01907   1.00
H1       0.96638    0.79050    0.02287   1.00
C3       0.81631    0.76818    0.02321   1.00
H1       0.79019    0.78396    0.02954   1.00
C2       0.88270    0.79640    0.02810   1.00
C2       0.80435    0.26008    0.95242   1.00
C3       0.83945    0.22903    0.94813   1.00
H1       0.84920    0.22541    0.93465   1.00
C3       0.78906    0.26312    0.97217   1.00
H1       0.76367    0.28374    0.97548   1.00
C4       0.86176    0.20178    0.96287   1.00
C5       0.90163    0.16587    0.95798   1.00
H2       0.87048    0.11870    0.95511   1.00
H2       0.92999    0.18695    0.94636   1.00
H2       0.92963    0.16943    0.96935   1.00
C4       0.81021    0.23633    0.98748   1.00
C5       0.79106    0.23875    0.00995   1.00
H2       0.82730    0.27787    0.01648   1.00
H2       0.74997    0.24108    0.01053   1.00
H2       0.78397    0.19829    0.01678   1.00
C6       0.84602    0.20411    0.98289   1.00
C6       0.86794    0.17415    0.99919   1.00
C4       0.82782    0.10609    0.00445   1.00
C5       0.75883    0.06495    0.99558   1.00
H2       0.76157    0.04280    0.98351   1.00
H2       0.72955    0.03148    0.00516   1.00
H2       0.74098    0.09448    0.99227   1.00
C4       0.93024    0.21619    0.00853   1.00
C5       0.97704    0.29118    0.00313   1.00
H2       0.96452    0.31900    0.01103   1.00
H2       0.02344    0.30395    0.00600   1.00
H2       0.97232    0.29788    0.98900   1.00
C3       0.85141    0.07903    0.01907   1.00
H1       0.82412    0.03362    0.02287   1.00
C3       0.95187    0.18369    0.02321   1.00
H1       0.99377    0.20981    0.02954   1.00
C2       0.91370    0.11730    0.02810   1.00
C2       0.47102    0.87760    0.78575   1.00
C3       0.50612    0.94375    0.78146   1.00
H1       0.51587    0.95712    0.76798   1.00
C3       0.45573    0.85927    0.80550   1.00
H1       0.43034    0.81326    0.80881   1.00
C4       0.52843    0.99331    0.79620   1.00
C5       0.56830    0.06909    0.79131   1.00
H2       0.53715    0.08511    0.78844   1.00
H2       0.59666    0.07637    0.77969   1.00
H2       0.59630    0.09353    0.80268   1.00
C4       0.47688    0.90721    0.82081   1.00
C5       0.45773    0.88564    0.84328   1.00
H2       0.49397    0.88276    0.84981   1.00
H2       0.41664    0.84222    0.84386   1.00
H2       0.45064    0.91901    0.85011   1.00
C6       0.51269    0.97524    0.81622   1.00
C6       0.53461    0.02712    0.83252   1.00
C4       0.49449    0.05506    0.83778   1.00
C5       0.42550    0.02721    0.82891   1.00
H2       0.42824    0.05210    0.81684   1.00
H2       0.39622    0.03140    0.83849   1.00
H2       0.40765    0.97983    0.82560   1.00
C4       0.59691    0.04738    0.84186   1.00
C5       0.64371    0.01919    0.83646   1.00
H2       0.63119    0.97885    0.84436   1.00
H2       0.69011    0.05282    0.83933   1.00
H2       0.63899    0.00777    0.82233   1.00
C3       0.51808    0.10571    0.85240   1.00
H1       0.49079    0.12383    0.85620   1.00
C3       0.61854    0.10151    0.85654   1.00
H1       0.66044    0.11729    0.86287   1.00
C2       0.58037    0.12973    0.86143   1.00
C2       0.12240    0.59341    0.78575   1.00
C3       0.05625    0.56236    0.78146   1.00
H1       0.04288    0.55874    0.76798   1.00
C3       0.14073    0.59645    0.80550   1.00
H1       0.18674    0.61707    0.80881   1.00
C4       0.00669    0.53511    0.79620   1.00
C5       0.93091    0.49920    0.79131   1.00
H2       0.91489    0.45203    0.78844   1.00
H2       0.92363    0.52028    0.77969   1.00
H2       0.90647    0.50276    0.80268   1.00
C4       0.09279    0.56966    0.82081   1.00
C5       0.11436    0.57208    0.84328   1.00
H2       0.11724    0.61120    0.84981   1.00
H2       0.15778    0.57441    0.84386   1.00
H2       0.08099    0.53162    0.85011   1.00
C6       0.02476    0.53744    0.81622   1.00
C6       0.97288    0.50748    0.83252   1.00
C4       0.94494    0.43942    0.83778   1.00
C5       0.97279    0.39828    0.82891   1.00
H2       0.94790    0.37613    0.81684   1.00
H2       0.96860    0.36481    0.83849   1.00
H2       0.02017    0.42781    0.82560   1.00
C4       0.95262    0.54952    0.84186   1.00
C5       0.98081    0.62451    0.83646   1.00
H2       0.02115    0.65233    0.84436   1.00
H2       0.94718    0.63728    0.83933   1.00
H2       0.99223    0.63121    0.82233   1.00
C3       0.89429    0.41236    0.85240   1.00
H1       0.87617    0.36695    0.85620   1.00
C3       0.89849    0.51702    0.85654   1.00
H1       0.88271    0.54314    0.86287   1.00
C2       0.87027    0.45063    0.86143   1.00
C2       0.40659    0.52898    0.78575   1.00
C3       0.43764    0.49388    0.78146   1.00
H1       0.44126    0.48413    0.76798   1.00
C3       0.40355    0.54427    0.80550   1.00
H1       0.38293    0.56966    0.80881   1.00
C4       0.46489    0.47157    0.79620   1.00
C5       0.50080    0.43170    0.79131   1.00
H2       0.54797    0.46285    0.78844   1.00
H2       0.47972    0.40334    0.77969   1.00
H2       0.49724    0.40370    0.80268   1.00
C4       0.43034    0.52312    0.82081   1.00
C5       0.42792    0.54227    0.84328   1.00
H2       0.38880    0.50603    0.84981   1.00
H2       0.42559    0.58336    0.84386   1.00
H2       0.46838    0.54936    0.85011   1.00
C6       0.46256    0.48731    0.81622   1.00
C6       0.49252    0.46539    0.83252   1.00
C4       0.56058    0.50551    0.83778   1.00
C5       0.60172    0.57450    0.82891   1.00
H2       0.62387    0.57176    0.81684   1.00
H2       0.63519    0.60378    0.83849   1.00
H2       0.57219    0.59235    0.82560   1.00
C4       0.45048    0.40309    0.84186   1.00
C5       0.37549    0.35629    0.83646   1.00
H2       0.34767    0.36881    0.84436   1.00
H2       0.36272    0.30989    0.83933   1.00
H2       0.36879    0.36101    0.82233   1.00
C3       0.58764    0.48192    0.85240   1.00
H1       0.63305    0.50921    0.85620   1.00
C3       0.48298    0.38146    0.85654   1.00
H1       0.45686    0.33956    0.86287   1.00
C2       0.54937    0.41963    0.86143   1.00
C2       0.21094    0.13768    0.38091   1.00
C3       0.27709    0.17278    0.38520   1.00
H1       0.29046    0.18253    0.39868   1.00
C3       0.19261    0.12239    0.36116   1.00
H1       0.14660    0.09700    0.35785   1.00
C4       0.32665    0.19509    0.37046   1.00
C5       0.40243    0.23496    0.37535   1.00
H2       0.41845    0.20381    0.37822   1.00
H2       0.40971    0.26332    0.38697   1.00
H2       0.42687    0.26296    0.36398   1.00
C4       0.24055    0.14354    0.34585   1.00
C5       0.21898    0.12439    0.32338   1.00
H2       0.21610    0.16063    0.31685   1.00
H2       0.17556    0.08330    0.32280   1.00
H2       0.25235    0.11730    0.31655   1.00
C6       0.30858    0.17935    0.35044   1.00
C6       0.36046    0.20127    0.33414   1.00
C4       0.38840    0.16115    0.32888   1.00
C5       0.36055    0.09216    0.33775   1.00
H2       0.38544    0.09490    0.34982   1.00
H2       0.36474    0.06288    0.32817   1.00
H2       0.31317    0.07431    0.34106   1.00
C4       0.38072    0.26357    0.32480   1.00
C5       0.35253    0.31037    0.33020   1.00
H2       0.31219    0.29785    0.32230   1.00
H2       0.38616    0.35677    0.32733   1.00
H2       0.34111    0.30565    0.34433   1.00
C3       0.43905    0.18474    0.31426   1.00
H1       0.45717    0.15745    0.31046   1.00
C3       0.43485    0.28520    0.31012   1.00
H1       0.45063    0.32710    0.30379   1.00
C2       0.46307    0.24703    0.30523   1.00
C2       0.92675    0.78906    0.38091   1.00
C3       0.89570    0.72291    0.38520   1.00
H1       0.89208    0.70954    0.39868   1.00
C3       0.92979    0.80739    0.36116   1.00
H1       0.95041    0.85340    0.35785   1.00
C4       0.86845    0.67335    0.37046   1.00
C5       0.83254    0.59757    0.37535   1.00
H2       0.78537    0.58155    0.37822   1.00
H2       0.85362    0.59029    0.38697   1.00
H2       0.83610    0.57313    0.36398   1.00
C4       0.90300    0.75945    0.34585   1.00
C5       0.90542    0.78102    0.32338   1.00
H2       0.94454    0.78390    0.31685   1.00
H2       0.90775    0.82444    0.32280   1.00
H2       0.86496    0.74765    0.31655   1.00
C6       0.87078    0.69142    0.35044   1.00
C6       0.84082    0.63954    0.33414   1.00
C4       0.77276    0.61160    0.32888   1.00
C5       0.73162    0.63945    0.33775   1.00
H2       0.70947    0.61456    0.34982   1.00
H2       0.69815    0.63526    0.32817   1.00
H2       0.76115    0.68683    0.34106   1.00
C4       0.88286    0.61928    0.32480   1.00
C5       0.95785    0.64747    0.33020   1.00
H2       0.98567    0.68781    0.32230   1.00
H2       0.97062    0.61384    0.32733   1.00
H2       0.96455    0.65889    0.34433   1.00
C3       0.74570    0.56095    0.31426   1.00
H1       0.70029    0.54283    0.31046   1.00
C3       0.85036    0.56515    0.31012   1.00
H1       0.87648    0.54937    0.30379   1.00
C2       0.78397    0.53693    0.30523   1.00
C2       0.86232    0.07325    0.38091   1.00
C3       0.82722    0.10430    0.38520   1.00
H1       0.81747    0.10792    0.39868   1.00
C3       0.87761    0.07021    0.36116   1.00
H1       0.90300    0.04959    0.35785   1.00
C4       0.80491    0.13155    0.37046   1.00
C5       0.76504    0.16746    0.37535   1.00
H2       0.79619    0.21463    0.37822   1.00
H2       0.73668    0.14638    0.38697   1.00
H2       0.73704    0.16390    0.36398   1.00
C4       0.85646    0.09700    0.34585   1.00
C5       0.87561    0.09458    0.32338   1.00
H2       0.83937    0.05546    0.31685   1.00
H2       0.91670    0.09225    0.32280   1.00
H2       0.88270    0.13504    0.31655   1.00
C6       0.82065    0.12922    0.35044   1.00
C6       0.79873    0.15918    0.33414   1.00
C4       0.83885    0.22724    0.32888   1.00
C5       0.90784    0.26838    0.33775   1.00
H2       0.90510    0.29053    0.34982   1.00
H2       0.93712    0.30185    0.32817   1.00
H2       0.92569    0.23885    0.34106   1.00
C4       0.73643    0.11714    0.32480   1.00
C5       0.68963    0.04215    0.33020   1.00
H2       0.70215    0.01433    0.32230   1.00
H2       0.64323    0.02938    0.32733   1.00
H2       0.69435    0.03545    0.34433   1.00
C3       0.81526    0.25430    0.31426   1.00
H1       0.84255    0.29971    0.31046   1.00
C3       0.71480    0.14964    0.31012   1.00
H1       0.67290    0.12352    0.30379   1.00
C2       0.75297    0.21603    0.30523   1.00
C2       0.86232    0.78906    0.88091   1.00
C3       0.82722    0.72291    0.88520   1.00
H1       0.81747    0.70954    0.89868   1.00
C3       0.87761    0.80739    0.86116   1.00
H1       0.90300    0.85340    0.85785   1.00
C4       0.80491    0.67335    0.87046   1.00
C5       0.76504    0.59757    0.87535   1.00
H2       0.79619    0.58155    0.87822   1.00
H2       0.73668    0.59029    0.88697   1.00
H2       0.73704    0.57313    0.86398   1.00
C4       0.85646    0.75945    0.84585   1.00
C5       0.87561    0.78102    0.82338   1.00
H2       0.83937    0.78390    0.81685   1.00
H2       0.91670    0.82444    0.82280   1.00
H2       0.88270    0.74765    0.81655   1.00
C6       0.82065    0.69142    0.85044   1.00
C6       0.79873    0.63954    0.83414   1.00
C4       0.83885    0.61160    0.82888   1.00
C5       0.90784    0.63945    0.83775   1.00
H2       0.90510    0.61456    0.84982   1.00
H2       0.93712    0.63526    0.82817   1.00
H2       0.92569    0.68683    0.84106   1.00
C4       0.73643    0.61928    0.82480   1.00
C5       0.68963    0.64747    0.83020   1.00
H2       0.70215    0.68781    0.82230   1.00
H2       0.64323    0.61384    0.82733   1.00
H2       0.69435    0.65889    0.84433   1.00
C3       0.81526    0.56095    0.81426   1.00
H1       0.84255    0.54283    0.81046   1.00
C3       0.71480    0.56515    0.81012   1.00
H1       0.67290    0.54937    0.80379   1.00
C2       0.75297    0.53693    0.80523   1.00
C2       0.21094    0.07325    0.88091   1.00
C3       0.27709    0.10430    0.88520   1.00
H1       0.29046    0.10792    0.89868   1.00
C3       0.19261    0.07021    0.86116   1.00
H1       0.14660    0.04959    0.85785   1.00
C4       0.32665    0.13155    0.87046   1.00
C5       0.40243    0.16746    0.87535   1.00
H2       0.41845    0.21463    0.87822   1.00
H2       0.40971    0.14638    0.88697   1.00
H2       0.42687    0.16390    0.86398   1.00
C4       0.24055    0.09700    0.84585   1.00
C5       0.21898    0.09458    0.82338   1.00
H2       0.21610    0.05546    0.81685   1.00
H2       0.17556    0.09225    0.82280   1.00
H2       0.25235    0.13504    0.81655   1.00
C6       0.30858    0.12922    0.85044   1.00
C6       0.36046    0.15918    0.83414   1.00
C4       0.38840    0.22724    0.82888   1.00
C5       0.36055    0.26838    0.83775   1.00
H2       0.38544    0.29053    0.84982   1.00
H2       0.36474    0.30185    0.82817   1.00
H2       0.31317    0.23885    0.84106   1.00
C4       0.38072    0.11714    0.82480   1.00
C5       0.35253    0.04215    0.83020   1.00
H2       0.31219    0.01433    0.82230   1.00
H2       0.38616    0.02938    0.82733   1.00
H2       0.34111    0.03545    0.84433   1.00
C3       0.43905    0.25430    0.81426   1.00
H1       0.45717    0.29971    0.81046   1.00
C3       0.43485    0.14964    0.81012   1.00
H1       0.45063    0.12352    0.80379   1.00
C2       0.46307    0.21603    0.80523   1.00
C2       0.92675    0.13768    0.88091   1.00
C3       0.89570    0.17278    0.88520   1.00
H1       0.89208    0.18253    0.89868   1.00
C3       0.92979    0.12239    0.86116   1.00
H1       0.95041    0.09700    0.85785   1.00
C4       0.86845    0.19509    0.87046   1.00
C5       0.83254    0.23496    0.87535   1.00
H2       0.78537    0.20381    0.87822   1.00
H2       0.85362    0.26332    0.88697   1.00
H2       0.83610    0.26296    0.86398   1.00
C4       0.90300    0.14354    0.84585   1.00
C5       0.90542    0.12439    0.82338   1.00
H2       0.94454    0.16063    0.81685   1.00
H2       0.90775    0.08330    0.82280   1.00
H2       0.86496    0.11730    0.81655   1.00
C6       0.87078    0.17935    0.85044   1.00
C6       0.84082    0.20127    0.83414   1.00
C4       0.77276    0.16115    0.82888   1.00
C5       0.73162    0.09216    0.83775   1.00
H2       0.70947    0.09490    0.84982   1.00
H2       0.69815    0.06288    0.82817   1.00
H2       0.76115    0.07431    0.84106   1.00
C4       0.88286    0.26357    0.82480   1.00
C5       0.95785    0.31037    0.83020   1.00
H2       0.98567    0.29785    0.82230   1.00
H2       0.97062    0.35677    0.82733   1.00
H2       0.96455    0.30565    0.84433   1.00
C3       0.74570    0.18474    0.81426   1.00
H1       0.70029    0.15745    0.81046   1.00
C3       0.85036    0.28520    0.81012   1.00
H1       0.87648    0.32710    0.80379   1.00
C2       0.78397    0.24703    0.80523   1.00
C2       0.12240    0.52898    0.28575   1.00
C3       0.05625    0.49388    0.28146   1.00
H1       0.04288    0.48413    0.26798   1.00
C3       0.14073    0.54427    0.30550   1.00
H1       0.18674    0.56966    0.30881   1.00
C4       0.00669    0.47157    0.29620   1.00
C5       0.93091    0.43170    0.29131   1.00
H2       0.91489    0.46285    0.28844   1.00
H2       0.92363    0.40334    0.27969   1.00
H2       0.90647    0.40370    0.30268   1.00
C4       0.09279    0.52312    0.32081   1.00
C5       0.11436    0.54227    0.34328   1.00
H2       0.11724    0.50603    0.34981   1.00
H2       0.15778    0.58336    0.34386   1.00
H2       0.08099    0.54936    0.35011   1.00
C6       0.02476    0.48731    0.31622   1.00
C6       0.97288    0.46539    0.33252   1.00
C4       0.94494    0.50551    0.33778   1.00
C5       0.97279    0.57450    0.32891   1.00
H2       0.94790    0.57176    0.31684   1.00
H2       0.96860    0.60378    0.33849   1.00
H2       0.02017    0.59235    0.32560   1.00
C4       0.95262    0.40309    0.34186   1.00
C5       0.98081    0.35629    0.33646   1.00
H2       0.02115    0.36881    0.34436   1.00
H2       0.94718    0.30989    0.33933   1.00
H2       0.99223    0.36101    0.32233   1.00
C3       0.89429    0.48192    0.35240   1.00
H1       0.87617    0.50921    0.35620   1.00
C3       0.89849    0.38146    0.35654   1.00
H1       0.88271    0.33956    0.36287   1.00
C2       0.87027    0.41963    0.36143   1.00
C2       0.40659    0.87760    0.28575   1.00
C3       0.43764    0.94375    0.28146   1.00
H1       0.44126    0.95712    0.26798   1.00
C3       0.40355    0.85927    0.30550   1.00
H1       0.38293    0.81326    0.30881   1.00
C4       0.46489    0.99331    0.29620   1.00
C5       0.50080    0.06909    0.29131   1.00
H2       0.54797    0.08511    0.28844   1.00
H2       0.47972    0.07637    0.27969   1.00
H2       0.49724    0.09353    0.30268   1.00
C4       0.43034    0.90721    0.32081   1.00
C5       0.42792    0.88564    0.34328   1.00
H2       0.38880    0.88276    0.34981   1.00
H2       0.42559    0.84222    0.34386   1.00
H2       0.46838    0.91901    0.35011   1.00
C6       0.46256    0.97524    0.31622   1.00
C6       0.49252    0.02712    0.33252   1.00
C4       0.56058    0.05506    0.33778   1.00
C5       0.60172    0.02721    0.32891   1.00
H2       0.62387    0.05210    0.31684   1.00
H2       0.63519    0.03140    0.33849   1.00
H2       0.57219    0.97983    0.32560   1.00
C4       0.45048    0.04738    0.34186   1.00
C5       0.37549    0.01919    0.33646   1.00
H2       0.34767    0.97885    0.34436   1.00
H2       0.36272    0.05282    0.33933   1.00
H2       0.36879    0.00777    0.32233   1.00
C3       0.58764    0.10571    0.35240   1.00
H1       0.63305    0.12383    0.35620   1.00
C3       0.48298    0.10151    0.35654   1.00
H1       0.45686    0.11729    0.36287   1.00
C2       0.54937    0.12973    0.36143   1.00
C2       0.47102    0.59341    0.28575   1.00
C3       0.50612    0.56236    0.28146   1.00
H1       0.51587    0.55874    0.26798   1.00
C3       0.45573    0.59645    0.30550   1.00
H1       0.43034    0.61707    0.30881   1.00
C4       0.52843    0.53511    0.29620   1.00
C5       0.56830    0.49920    0.29131   1.00
H2       0.53715    0.45203    0.28844   1.00
H2       0.59666    0.52028    0.27969   1.00
H2       0.59630    0.50276    0.30268   1.00
C4       0.47688    0.56966    0.32081   1.00
C5       0.45773    0.57208    0.34328   1.00
H2       0.49397    0.61120    0.34981   1.00
H2       0.41664    0.57441    0.34386   1.00
H2       0.45064    0.53162    0.35011   1.00
C6       0.51269    0.53744    0.31622   1.00
C6       0.53461    0.50748    0.33252   1.00
C4       0.49449    0.43942    0.33778   1.00
C5       0.42550    0.39828    0.32891   1.00
H2       0.42824    0.37613    0.31684   1.00
H2       0.39622    0.36481    0.33849   1.00
H2       0.40765    0.42781    0.32560   1.00
C4       0.59691    0.54952    0.34186   1.00
C5       0.64371    0.62451    0.33646   1.00
H2       0.63119    0.65233    0.34436   1.00
H2       0.69011    0.63728    0.33933   1.00
H2       0.63899    0.63121    0.32233   1.00
C3       0.51808    0.41236    0.35240   1.00
H1       0.49079    0.36695    0.35620   1.00
C3       0.61854    0.51702    0.35654   1.00
H1       0.66044    0.54314    0.36287   1.00
C2       0.58037    0.45063    0.36143   1.00
C2       0.13768    0.21094    0.11909   1.00
C3       0.17278    0.27709    0.11480   1.00
H1       0.18253    0.29046    0.10132   1.00
C3       0.12239    0.19261    0.13884   1.00
H1       0.09700    0.14660    0.14215   1.00
C4       0.19509    0.32665    0.12954   1.00
C5       0.23496    0.40243    0.12465   1.00
H2       0.20381    0.41845    0.12178   1.00
H2       0.26332    0.40971    0.11303   1.00
H2       0.26296    0.42687    0.13602   1.00
C4       0.14354    0.24055    0.15415   1.00
C5       0.12439    0.21898    0.17662   1.00
H2       0.16063    0.21610    0.18315   1.00
H2       0.08330    0.17556    0.17720   1.00
H2       0.11730    0.25235    0.18345   1.00
C6       0.17935    0.30858    0.14956   1.00
C6       0.20127    0.36046    0.16586   1.00
C4       0.16115    0.38840    0.17112   1.00
C5       0.09216    0.36055    0.16225   1.00
H2       0.09490    0.38544    0.15018   1.00
H2       0.06288    0.36474    0.17183   1.00
H2       0.07431    0.31317    0.15894   1.00
C4       0.26357    0.38072    0.17520   1.00
C5       0.31037    0.35253    0.16980   1.00
H2       0.29785    0.31219    0.17770   1.00
H2       0.35677    0.38616    0.17267   1.00
H2       0.30565    0.34111    0.15567   1.00
C3       0.18474    0.43905    0.18574   1.00
H1       0.15745    0.45717    0.18954   1.00
C3       0.28520    0.43485    0.18988   1.00
H1       0.32710    0.45063    0.19621   1.00
C2       0.24703    0.46307    0.19477   1.00
C2       0.78906    0.92675    0.11909   1.00
C3       0.72291    0.89570    0.11480   1.00
H1       0.70954    0.89208    0.10132   1.00
C3       0.80739    0.92979    0.13884   1.00
H1       0.85340    0.95041    0.14215   1.00
C4       0.67335    0.86845    0.12954   1.00
C5       0.59757    0.83254    0.12465   1.00
H2       0.58155    0.78537    0.12178   1.00
H2       0.59029    0.85362    0.11303   1.00
H2       0.57313    0.83610    0.13602   1.00
C4       0.75945    0.90300    0.15415   1.00
C5       0.78102    0.90542    0.17662   1.00
H2       0.78390    0.94454    0.18315   1.00
H2       0.82444    0.90775    0.17720   1.00
H2       0.74765    0.86496    0.18345   1.00
C6       0.69142    0.87078    0.14956   1.00
C6       0.63954    0.84082    0.16586   1.00
C4       0.61160    0.77276    0.17112   1.00
C5       0.63945    0.73162    0.16225   1.00
H2       0.61456    0.70947    0.15018   1.00
H2       0.63526    0.69815    0.17183   1.00
H2       0.68683    0.76115    0.15894   1.00
C4       0.61928    0.88286    0.17520   1.00
C5       0.64747    0.95785    0.16980   1.00
H2       0.68781    0.98567    0.17770   1.00
H2       0.61384    0.97062    0.17267   1.00
H2       0.65889    0.96455    0.15567   1.00
C3       0.56095    0.74570    0.18574   1.00
H1       0.54283    0.70029    0.18954   1.00
C3       0.56515    0.85036    0.18988   1.00
H1       0.54937    0.87648    0.19621   1.00
C2       0.53693    0.78397    0.19477   1.00
C2       0.07325    0.86232    0.11909   1.00
C3       0.10430    0.82722    0.11480   1.00
H1       0.10792    0.81747    0.10132   1.00
C3       0.07021    0.87761    0.13884   1.00
H1       0.04959    0.90300    0.14215   1.00
C4       0.13155    0.80491    0.12954   1.00
C5       0.16746    0.76504    0.12465   1.00
H2       0.21463    0.79619    0.12178   1.00
H2       0.14638    0.73668    0.11303   1.00
H2       0.16390    0.73704    0.13602   1.00
C4       0.09700    0.85646    0.15415   1.00
C5       0.09458    0.87561    0.17662   1.00
H2       0.05546    0.83937    0.18315   1.00
H2       0.09225    0.91670    0.17720   1.00
H2       0.13504    0.88270    0.18345   1.00
C6       0.12922    0.82065    0.14956   1.00
C6       0.15918    0.79873    0.16586   1.00
C4       0.22724    0.83885    0.17112   1.00
C5       0.26838    0.90784    0.16225   1.00
H2       0.29053    0.90510    0.15018   1.00
H2       0.30185    0.93712    0.17183   1.00
H2       0.23885    0.92569    0.15894   1.00
C4       0.11714    0.73643    0.17520   1.00
C5       0.04215    0.68963    0.16980   1.00
H2       0.01433    0.70215    0.17770   1.00
H2       0.02938    0.64323    0.17267   1.00
H2       0.03545    0.69435    0.15567   1.00
C3       0.25430    0.81526    0.18574   1.00
H1       0.29971    0.84255    0.18954   1.00
C3       0.14964    0.71480    0.18988   1.00
H1       0.12352    0.67290    0.19621   1.00
C2       0.21603    0.75297    0.19477   1.00
C2       0.87760    0.47102    0.71425   1.00
C3       0.94375    0.50612    0.71854   1.00
H1       0.95712    0.51587    0.73202   1.00
C3       0.85927    0.45573    0.69450   1.00
H1       0.81326    0.43034    0.69119   1.00
C4       0.99331    0.52843    0.70380   1.00
C5       0.06909    0.56830    0.70869   1.00
H2       0.08511    0.53715    0.71156   1.00
H2       0.07637    0.59666    0.72031   1.00
H2       0.09353    0.59630    0.69732   1.00
C4       0.90721    0.47688    0.67919   1.00
C5       0.88564    0.45773    0.65672   1.00
H2       0.88276    0.49397    0.65019   1.00
H2       0.84222    0.41664    0.65614   1.00
H2       0.91901    0.45064    0.64989   1.00
C6       0.97524    0.51269    0.68378   1.00
C6       0.02712    0.53461    0.66748   1.00
C4       0.05506    0.49449    0.66222   1.00
C5       0.02721    0.42550    0.67109   1.00
H2       0.05210    0.42824    0.68316   1.00
H2       0.03140    0.39622    0.66151   1.00
H2       0.97983    0.40765    0.67440   1.00
C4       0.04738    0.59691    0.65814   1.00
C5       0.01919    0.64371    0.66354   1.00
H2       0.97885    0.63119    0.65564   1.00
H2       0.05282    0.69011    0.66067   1.00
H2       0.00777    0.63899    0.67767   1.00
C3       0.10571    0.51808    0.64760   1.00
H1       0.12383    0.49079    0.64380   1.00
C3       0.10151    0.61854    0.64346   1.00
H1       0.11729    0.66044    0.63713   1.00
C2       0.12973    0.58037    0.63857   1.00
C2       0.59341    0.12240    0.71425   1.00
C3       0.56236    0.05625    0.71854   1.00
H1       0.55874    0.04288    0.73202   1.00
C3       0.59645    0.14073    0.69450   1.00
H1       0.61707    0.18674    0.69119   1.00
C4       0.53511    0.00669    0.70380   1.00
C5       0.49920    0.93091    0.70869   1.00
H2       0.45203    0.91489    0.71156   1.00
H2       0.52028    0.92363    0.72031   1.00
H2       0.50276    0.90647    0.69732   1.00
C4       0.56966    0.09279    0.67919   1.00
C5       0.57208    0.11436    0.65672   1.00
H2       0.61120    0.11724    0.65019   1.00
H2       0.57441    0.15778    0.65614   1.00
H2       0.53162    0.08099    0.64989   1.00
C6       0.53744    0.02476    0.68378   1.00
C6       0.50748    0.97288    0.66748   1.00
C4       0.43942    0.94494    0.66222   1.00
C5       0.39828    0.97279    0.67109   1.00
H2       0.37613    0.94790    0.68316   1.00
H2       0.36481    0.96860    0.66151   1.00
H2       0.42781    0.02017    0.67440   1.00
C4       0.54952    0.95262    0.65814   1.00
C5       0.62451    0.98081    0.66354   1.00
H2       0.65233    0.02115    0.65564   1.00
H2       0.63728    0.94718    0.66067   1.00
H2       0.63121    0.99223    0.67767   1.00
C3       0.41236    0.89429    0.64760   1.00
H1       0.36695    0.87617    0.64380   1.00
C3       0.51702    0.89849    0.64346   1.00
H1       0.54314    0.88271    0.63713   1.00
C2       0.45063    0.87027    0.63857   1.00
C2       0.52898    0.40659    0.71425   1.00
C3       0.49388    0.43764    0.71854   1.00
H1       0.48413    0.44126    0.73202   1.00
C3       0.54427    0.40355    0.69450   1.00
H1       0.56966    0.38293    0.69119   1.00
C4       0.47157    0.46489    0.70380   1.00
C5       0.43170    0.50080    0.70869   1.00
H2       0.46285    0.54797    0.71156   1.00
H2       0.40334    0.47972    0.72031   1.00
H2       0.40370    0.49724    0.69732   1.00
C4       0.52312    0.43034    0.67919   1.00
C5       0.54227    0.42792    0.65672   1.00
H2       0.50603    0.38880    0.65019   1.00
H2       0.58336    0.42559    0.65614   1.00
H2       0.54936    0.46838    0.64989   1.00
C6       0.48731    0.46256    0.68378   1.00
C6       0.46539    0.49252    0.66748   1.00
C4       0.50551    0.56058    0.66222   1.00
C5       0.57450    0.60172    0.67109   1.00
H2       0.57176    0.62387    0.68316   1.00
H2       0.60378    0.63519    0.66151   1.00
H2       0.59235    0.57219    0.67440   1.00
C4       0.40309    0.45048    0.65814   1.00
C5       0.35629    0.37549    0.66354   1.00
H2       0.36881    0.34767    0.65564   1.00
H2       0.30989    0.36272    0.66067   1.00
H2       0.36101    0.36879    0.67767   1.00
C3       0.48192    0.58764    0.64760   1.00
H1       0.50921    0.63305    0.64380   1.00
C3       0.38146    0.48298    0.64346   1.00
H1       0.33956    0.45686    0.63713   1.00
C2       0.41963    0.54937    0.63857   1.00
C2       0.52898    0.12240    0.21425   1.00
C3       0.49388    0.05625    0.21854   1.00
H1       0.48413    0.04288    0.23202   1.00
C3       0.54427    0.14073    0.19450   1.00
H1       0.56966    0.18674    0.19119   1.00
C4       0.47157    0.00669    0.20380   1.00
C5       0.43170    0.93091    0.20869   1.00
H2       0.46285    0.91489    0.21156   1.00
H2       0.40334    0.92363    0.22031   1.00
H2       0.40370    0.90647    0.19732   1.00
C4       0.52312    0.09279    0.17919   1.00
C5       0.54227    0.11436    0.15672   1.00
H2       0.50603    0.11724    0.15019   1.00
H2       0.58336    0.15778    0.15614   1.00
H2       0.54936    0.08099    0.14989   1.00
C6       0.48731    0.02476    0.18378   1.00
C6       0.46539    0.97288    0.16748   1.00
C4       0.50551    0.94494    0.16222   1.00
C5       0.57450    0.97279    0.17109   1.00
H2       0.57176    0.94790    0.18316   1.00
H2       0.60378    0.96860    0.16151   1.00
H2       0.59235    0.02017    0.17440   1.00
C4       0.40309    0.95262    0.15814   1.00
C5       0.35629    0.98081    0.16354   1.00
H2       0.36881    0.02115    0.15564   1.00
H2       0.30989    0.94718    0.16067   1.00
H2       0.36101    0.99223    0.17767   1.00
C3       0.48192    0.89429    0.14760   1.00
H1       0.50921    0.87617    0.14380   1.00
C3       0.38146    0.89849    0.14346   1.00
H1       0.33956    0.88271    0.13713   1.00
C2       0.41963    0.87027    0.13857   1.00
C2       0.87760    0.40659    0.21425   1.00
C3       0.94375    0.43764    0.21854   1.00
H1       0.95712    0.44126    0.23202   1.00
C3       0.85927    0.40355    0.19450   1.00
H1       0.81326    0.38293    0.19119   1.00
C4       0.99331    0.46489    0.20380   1.00
C5       0.06909    0.50080    0.20869   1.00
H2       0.08511    0.54797    0.21156   1.00
H2       0.07637    0.47972    0.22031   1.00
H2       0.09353    0.49724    0.19732   1.00
C4       0.90721    0.43034    0.17919   1.00
C5       0.88564    0.42792    0.15672   1.00
H2       0.88276    0.38880    0.15019   1.00
H2       0.84222    0.42559    0.15614   1.00
H2       0.91901    0.46838    0.14989   1.00
C6       0.97524    0.46256    0.18378   1.00
C6       0.02712    0.49252    0.16748   1.00
C4       0.05506    0.56058    0.16222   1.00
C5       0.02721    0.60172    0.17109   1.00
H2       0.05210    0.62387    0.18316   1.00
H2       0.03140    0.63519    0.16151   1.00
H2       0.97983    0.57219    0.17440   1.00
C4       0.04738    0.45048    0.15814   1.00
C5       0.01919    0.37549    0.16354   1.00
H2       0.97885    0.34767    0.15564   1.00
H2       0.05282    0.36272    0.16067   1.00
H2       0.00777    0.36879    0.17767   1.00
C3       0.10571    0.58764    0.14760   1.00
H1       0.12383    0.63305    0.14380   1.00
C3       0.10151    0.48298    0.14346   1.00
H1       0.11729    0.45686    0.13713   1.00
C2       0.12973    0.54937    0.13857   1.00
C2       0.59341    0.47102    0.21425   1.00
C3       0.56236    0.50612    0.21854   1.00
H1       0.55874    0.51587    0.23202   1.00
C3       0.59645    0.45573    0.19450   1.00
H1       0.61707    0.43034    0.19119   1.00
C4       0.53511    0.52843    0.20380   1.00
C5       0.49920    0.56830    0.20869   1.00
H2       0.45203    0.53715    0.21156   1.00
H2       0.52028    0.59666    0.22031   1.00
H2       0.50276    0.59630    0.19732   1.00
C4       0.56966    0.47688    0.17919   1.00
C5       0.57208    0.45773    0.15672   1.00
H2       0.61120    0.49397    0.15019   1.00
H2       0.57441    0.41664    0.15614   1.00
H2       0.53162    0.45064    0.14989   1.00
C6       0.53744    0.51269    0.18378   1.00
C6       0.50748    0.53461    0.16748   1.00
C4       0.43942    0.49449    0.16222   1.00
C5       0.39828    0.42550    0.17109   1.00
H2       0.37613    0.42824    0.18316   1.00
H2       0.36481    0.39622    0.16151   1.00
H2       0.42781    0.40765    0.17440   1.00
C4       0.54952    0.59691    0.15814   1.00
C5       0.62451    0.64371    0.16354   1.00
H2       0.65233    0.63119    0.15564   1.00
H2       0.63728    0.69011    0.16067   1.00
H2       0.63121    0.63899    0.17767   1.00
C3       0.41236    0.51808    0.14760   1.00
H1       0.36695    0.49079    0.14380   1.00
C3       0.51702    0.61854    0.14346   1.00
H1       0.54314    0.66044    0.13713   1.00
C2       0.45063    0.58037    0.13857   1.00
C2       0.78906    0.86232    0.61909   1.00
C3       0.72291    0.82722    0.61480   1.00
H1       0.70954    0.81747    0.60132   1.00
C3       0.80739    0.87761    0.63884   1.00
H1       0.85340    0.90300    0.64215   1.00
C4       0.67335    0.80491    0.62954   1.00
C5       0.59757    0.76504    0.62465   1.00
H2       0.58155    0.79619    0.62178   1.00
H2       0.59029    0.73668    0.61303   1.00
H2       0.57313    0.73704    0.63602   1.00
C4       0.75945    0.85646    0.65415   1.00
C5       0.78102    0.87561    0.67662   1.00
H2       0.78390    0.83937    0.68315   1.00
H2       0.82444    0.91670    0.67720   1.00
H2       0.74765    0.88270    0.68345   1.00
C6       0.69142    0.82065    0.64956   1.00
C6       0.63954    0.79873    0.66586   1.00
C4       0.61160    0.83885    0.67112   1.00
C5       0.63945    0.90784    0.66225   1.00
H2       0.61456    0.90510    0.65018   1.00
H2       0.63526    0.93712    0.67183   1.00
H2       0.68683    0.92569    0.65894   1.00
C4       0.61928    0.73643    0.67520   1.00
C5       0.64747    0.68963    0.66980   1.00
H2       0.68781    0.70215    0.67770   1.00
H2       0.61384    0.64323    0.67267   1.00
H2       0.65889    0.69435    0.65567   1.00
C3       0.56095    0.81526    0.68574   1.00
H1       0.54283    0.84255    0.68954   1.00
C3       0.56515    0.71480    0.68988   1.00
H1       0.54937    0.67290    0.69621   1.00
C2       0.53693    0.75297    0.69477   1.00
C2       0.07325    0.21094    0.61909   1.00
C3       0.10430    0.27709    0.61480   1.00
H1       0.10792    0.29046    0.60132   1.00
C3       0.07021    0.19261    0.63884   1.00
H1       0.04959    0.14660    0.64215   1.00
C4       0.13155    0.32665    0.62954   1.00
C5       0.16746    0.40243    0.62465   1.00
H2       0.21463    0.41845    0.62178   1.00
H2       0.14638    0.40971    0.61303   1.00
H2       0.16390    0.42687    0.63602   1.00
C4       0.09700    0.24055    0.65415   1.00
C5       0.09458    0.21898    0.67662   1.00
H2       0.05546    0.21610    0.68315   1.00
H2       0.09225    0.17556    0.67720   1.00
H2       0.13504    0.25235    0.68345   1.00
C6       0.12922    0.30858    0.64956   1.00
C6       0.15918    0.36046    0.66586   1.00
C4       0.22724    0.38840    0.67112   1.00
C5       0.26838    0.36055    0.66225   1.00
H2       0.29053    0.38544    0.65018   1.00
H2       0.30185    0.36474    0.67183   1.00
H2       0.23885    0.31317    0.65894   1.00
C4       0.11714    0.38072    0.67520   1.00
C5       0.04215    0.35253    0.66980   1.00
H2       0.01433    0.31219    0.67770   1.00
H2       0.02938    0.38616    0.67267   1.00
H2       0.03545    0.34111    0.65567   1.00
C3       0.25430    0.43905    0.68574   1.00
H1       0.29971    0.45717    0.68954   1.00
C3       0.14964    0.43485    0.68988   1.00
H1       0.12352    0.45063    0.69621   1.00
C2       0.21603    0.46307    0.69477   1.00
C2       0.13768    0.92675    0.61909   1.00
C3       0.17278    0.89570    0.61480   1.00
H1       0.18253    0.89208    0.60132   1.00
C3       0.12239    0.92979    0.63884   1.00
H1       0.09700    0.95041    0.64215   1.00
C4       0.19509    0.86845    0.62954   1.00
C5       0.23496    0.83254    0.62465   1.00
H2       0.20381    0.78537    0.62178   1.00
H2       0.26332    0.85362    0.61303   1.00
H2       0.26296    0.83610    0.63602   1.00
C4       0.14354    0.90300    0.65415   1.00
C5       0.12439    0.90542    0.67662   1.00
H2       0.16063    0.94454    0.68315   1.00
H2       0.08330    0.90775    0.67720   1.00
H2       0.11730    0.86496    0.68345   1.00
C6       0.17935    0.87078    0.64956   1.00
C6       0.20127    0.84082    0.66586   1.00
C4       0.16115    0.77276    0.67112   1.00
C5       0.09216    0.73162    0.66225   1.00
H2       0.09490    0.70947    0.65018   1.00
H2       0.06288    0.69815    0.67183   1.00
H2       0.07431    0.76115    0.65894   1.00
C4       0.26357    0.88286    0.67520   1.00
C5       0.31037    0.95785    0.66980   1.00
H2       0.29785    0.98567    0.67770   1.00
H2       0.35677    0.97062    0.67267   1.00
H2       0.30565    0.96455    0.65567   1.00
C3       0.18474    0.74570    0.68574   1.00
H1       0.15745    0.70029    0.68954   1.00
C3       0.28520    0.85036    0.68988   1.00
H1       0.32710    0.87648    0.69621   1.00
C2       0.24703    0.78397    0.69477   1.00
