data_IRMOF10_interpen_symm_ligand4cp_label_d_1.

_audit_creation_method             'generated by an auxiliary program of Tobunporous'

_symmetry_space_group_name_H-M     'P 1'
_symmetry_Int_Tables_number        1
_symmetry_cell_setting             triclinic

_cell_length_a                    22.6523
_cell_length_b                    22.6523
_cell_length_c                    65.9502
_cell_angle_alpha                 90.0000
_cell_angle_beta                  90.0000
_cell_angle_gamma                 120.0000

loop_
_atom_site_label
_atom_site_fract_x
_atom_site_fract_y
_atom_site_fract_z
_atom_site_occupancy
O1       0.00000    0.00000    0.57470   1.00
Zn1      0.00000    0.00000    0.54560   1.00
Zn1      0.94843    0.04287    0.58357   1.00
Zn1      0.09443    0.05157    0.58357   1.00
Zn1      0.95713    0.90557    0.58357   1.00
O2       0.93860    0.02610    0.53560   1.00
O2       0.08750    0.06140    0.53560   1.00
O2       0.97390    0.91250    0.53560   1.00
O2       0.91300    0.07160    0.56150   1.00
O2       0.00463    0.12027    0.60077   1.00
O2       0.87413    0.98077    0.60037   1.00
O2       0.15860    0.08700    0.56150   1.00
O2       0.10663    0.12587    0.60037   1.00
O2       0.11563    0.99537    0.60077   1.00
O2       0.92840    0.84140    0.56150   1.00
O2       0.87973    0.88437    0.60077   1.00
O2       0.01923    0.89337    0.60037   1.00
C1       0.91390    0.06020    0.54330   1.00
C1       0.14630    0.08610    0.54330   1.00
C1       0.93980    0.85370    0.54330   1.00
C1       0.06663    0.14397    0.60637   1.00
C1       0.85603    0.92267    0.60637   1.00
C1       0.07733    0.93337    0.60637   1.00
O1       0.00000    0.00000    0.92530   1.00
Zn1      0.00000    0.00000    0.95440   1.00
Zn1      0.04287    0.94843    0.91643   1.00
Zn1      0.05157    0.09443    0.91643   1.00
Zn1      0.90557    0.95713    0.91643   1.00
O2       0.02610    0.93860    0.96440   1.00
O2       0.06140    0.08750    0.96440   1.00
O2       0.91250    0.97390    0.96440   1.00
O2       0.07160    0.91300    0.93850   1.00
O2       0.12027    0.00463    0.89923   1.00
O2       0.98077    0.87413    0.89963   1.00
O2       0.08700    0.15860    0.93850   1.00
O2       0.12587    0.10663    0.89963   1.00
O2       0.99537    0.11563    0.89923   1.00
O2       0.84140    0.92840    0.93850   1.00
O2       0.88437    0.87973    0.89923   1.00
O2       0.89337    0.01923    0.89963   1.00
C1       0.06020    0.91390    0.95670   1.00
C1       0.08610    0.14630    0.95670   1.00
C1       0.85370    0.93980    0.95670   1.00
C1       0.14397    0.06663    0.89363   1.00
C1       0.92267    0.85603    0.89363   1.00
C1       0.93337    0.07733    0.89363   1.00
O1       0.00000    0.00000    0.42530   1.00
Zn1      0.00000    0.00000    0.45440   1.00
Zn1      0.05157    0.95713    0.41643   1.00
Zn1      0.90557    0.94843    0.41643   1.00
Zn1      0.04287    0.09443    0.41643   1.00
O2       0.06140    0.97390    0.46440   1.00
O2       0.91250    0.93860    0.46440   1.00
O2       0.02610    0.08750    0.46440   1.00
O2       0.08700    0.92840    0.43850   1.00
O2       0.99537    0.87973    0.39923   1.00
O2       0.12587    0.01923    0.39963   1.00
O2       0.84140    0.91300    0.43850   1.00
O2       0.89337    0.87413    0.39963   1.00
O2       0.88437    0.00463    0.39923   1.00
O2       0.07160    0.15860    0.43850   1.00
O2       0.12027    0.11563    0.39923   1.00
O2       0.98077    0.10663    0.39963   1.00
C1       0.08610    0.93980    0.45670   1.00
C1       0.85370    0.91390    0.45670   1.00
C1       0.06020    0.14630    0.45670   1.00
C1       0.93337    0.85603    0.39363   1.00
C1       0.14397    0.07733    0.39363   1.00
C1       0.92267    0.06663    0.39363   1.00
O1       0.00000    0.00000    0.07470   1.00
Zn1      0.00000    0.00000    0.04560   1.00
Zn1      0.95713    0.05157    0.08357   1.00
Zn1      0.94843    0.90557    0.08357   1.00
Zn1      0.09443    0.04287    0.08357   1.00
O2       0.97390    0.06140    0.03560   1.00
O2       0.93860    0.91250    0.03560   1.00
O2       0.08750    0.02610    0.03560   1.00
O2       0.92840    0.08700    0.06150   1.00
O2       0.87973    0.99537    0.10077   1.00
O2       0.01923    0.12587    0.10037   1.00
O2       0.91300    0.84140    0.06150   1.00
O2       0.87413    0.89337    0.10037   1.00
O2       0.00463    0.88437    0.10077   1.00
O2       0.15860    0.07160    0.06150   1.00
O2       0.11563    0.12027    0.10077   1.00
O2       0.10663    0.98077    0.10037   1.00
C1       0.93980    0.08610    0.04330   1.00
C1       0.91390    0.85370    0.04330   1.00
C1       0.14630    0.06020    0.04330   1.00
C1       0.85603    0.93337    0.10637   1.00
C1       0.07733    0.14397    0.10637   1.00
C1       0.06663    0.92267    0.10637   1.00
O1       0.66667    0.33333    0.90803   1.00
Zn1      0.66667    0.33333    0.87893   1.00
Zn1      0.61510    0.37620    0.91690   1.00
Zn1      0.76110    0.38490    0.91690   1.00
Zn1      0.62380    0.23890    0.91690   1.00
O2       0.60527    0.35943    0.86893   1.00
O2       0.75417    0.39473    0.86893   1.00
O2       0.64057    0.24583    0.86893   1.00
O2       0.57967    0.40493    0.89483   1.00
O2       0.67130    0.45360    0.93410   1.00
O2       0.54080    0.31410    0.93370   1.00
O2       0.82527    0.42033    0.89483   1.00
O2       0.77330    0.45920    0.93370   1.00
O2       0.78230    0.32870    0.93410   1.00
O2       0.59507    0.17473    0.89483   1.00
O2       0.54640    0.21770    0.93410   1.00
O2       0.68590    0.22670    0.93370   1.00
C1       0.58057    0.39353    0.87663   1.00
C1       0.81297    0.41943    0.87663   1.00
C1       0.60647    0.18703    0.87663   1.00
C1       0.73330    0.47730    0.93970   1.00
C1       0.52270    0.25600    0.93970   1.00
C1       0.74400    0.26670    0.93970   1.00
O1       0.66667    0.33333    0.25863   1.00
Zn1      0.66667    0.33333    0.28773   1.00
Zn1      0.70953    0.28177    0.24977   1.00
Zn1      0.71823    0.42777    0.24977   1.00
Zn1      0.57223    0.29047    0.24977   1.00
O2       0.69277    0.27193    0.29773   1.00
O2       0.72807    0.42083    0.29773   1.00
O2       0.57917    0.30723    0.29773   1.00
O2       0.73827    0.24633    0.27183   1.00
O2       0.78693    0.33797    0.23257   1.00
O2       0.64743    0.20747    0.23297   1.00
O2       0.75367    0.49193    0.27183   1.00
O2       0.79253    0.43997    0.23297   1.00
O2       0.66203    0.44897    0.23257   1.00
O2       0.50807    0.26173    0.27183   1.00
O2       0.55103    0.21307    0.23257   1.00
O2       0.56003    0.35257    0.23297   1.00
C1       0.72687    0.24723    0.29003   1.00
C1       0.75277    0.47963    0.29003   1.00
C1       0.52037    0.27313    0.29003   1.00
C1       0.81063    0.39997    0.22697   1.00
C1       0.58933    0.18937    0.22697   1.00
C1       0.60003    0.41067    0.22697   1.00
O1       0.66667    0.33333    0.75863   1.00
Zn1      0.66667    0.33333    0.78773   1.00
Zn1      0.71823    0.29047    0.74977   1.00
Zn1      0.57223    0.28177    0.74977   1.00
Zn1      0.70953    0.42777    0.74977   1.00
O2       0.72807    0.30723    0.79773   1.00
O2       0.57917    0.27193    0.79773   1.00
O2       0.69277    0.42083    0.79773   1.00
O2       0.75367    0.26173    0.77183   1.00
O2       0.66203    0.21307    0.73257   1.00
O2       0.79253    0.35257    0.73297   1.00
O2       0.50807    0.24633    0.77183   1.00
O2       0.56003    0.20747    0.73297   1.00
O2       0.55103    0.33797    0.73257   1.00
O2       0.73827    0.49193    0.77183   1.00
O2       0.78693    0.44897    0.73257   1.00
O2       0.64743    0.43997    0.73297   1.00
C1       0.75277    0.27313    0.79003   1.00
C1       0.52037    0.24723    0.79003   1.00
C1       0.72687    0.47963    0.79003   1.00
C1       0.60003    0.18937    0.72697   1.00
C1       0.81063    0.41067    0.72697   1.00
C1       0.58933    0.39997    0.72697   1.00
O1       0.66667    0.33333    0.40803   1.00
Zn1      0.66667    0.33333    0.37893   1.00
Zn1      0.62380    0.38490    0.41690   1.00
Zn1      0.61510    0.23890    0.41690   1.00
Zn1      0.76110    0.37620    0.41690   1.00
O2       0.64057    0.39473    0.36893   1.00
O2       0.60527    0.24583    0.36893   1.00
O2       0.75417    0.35943    0.36893   1.00
O2       0.59507    0.42033    0.39483   1.00
O2       0.54640    0.32870    0.43410   1.00
O2       0.68590    0.45920    0.43370   1.00
O2       0.57967    0.17473    0.39483   1.00
O2       0.54080    0.22670    0.43370   1.00
O2       0.67130    0.21770    0.43410   1.00
O2       0.82527    0.40493    0.39483   1.00
O2       0.78230    0.45360    0.43410   1.00
O2       0.77330    0.31410    0.43370   1.00
C1       0.60647    0.41943    0.37663   1.00
C1       0.58057    0.18703    0.37663   1.00
C1       0.81297    0.39353    0.37663   1.00
C1       0.52270    0.26670    0.43970   1.00
C1       0.74400    0.47730    0.43970   1.00
C1       0.73330    0.25600    0.43970   1.00
O1       0.33333    0.66667    0.24137   1.00
Zn1      0.33333    0.66667    0.21227   1.00
Zn1      0.28177    0.70953    0.25023   1.00
Zn1      0.42777    0.71823    0.25023   1.00
Zn1      0.29047    0.57223    0.25023   1.00
O2       0.27193    0.69277    0.20227   1.00
O2       0.42083    0.72807    0.20227   1.00
O2       0.30723    0.57917    0.20227   1.00
O2       0.24633    0.73827    0.22817   1.00
O2       0.33797    0.78693    0.26743   1.00
O2       0.20747    0.64743    0.26703   1.00
O2       0.49193    0.75367    0.22817   1.00
O2       0.43997    0.79253    0.26703   1.00
O2       0.44897    0.66203    0.26743   1.00
O2       0.26173    0.50807    0.22817   1.00
O2       0.21307    0.55103    0.26743   1.00
O2       0.35257    0.56003    0.26703   1.00
C1       0.24723    0.72687    0.20997   1.00
C1       0.47963    0.75277    0.20997   1.00
C1       0.27313    0.52037    0.20997   1.00
C1       0.39997    0.81063    0.27303   1.00
C1       0.18937    0.58933    0.27303   1.00
C1       0.41067    0.60003    0.27303   1.00
O1       0.33333    0.66667    0.59197   1.00
Zn1      0.33333    0.66667    0.62107   1.00
Zn1      0.37620    0.61510    0.58310   1.00
Zn1      0.38490    0.76110    0.58310   1.00
Zn1      0.23890    0.62380    0.58310   1.00
O2       0.35943    0.60527    0.63107   1.00
O2       0.39473    0.75417    0.63107   1.00
O2       0.24583    0.64057    0.63107   1.00
O2       0.40493    0.57967    0.60517   1.00
O2       0.45360    0.67130    0.56590   1.00
O2       0.31410    0.54080    0.56630   1.00
O2       0.42033    0.82527    0.60517   1.00
O2       0.45920    0.77330    0.56630   1.00
O2       0.32870    0.78230    0.56590   1.00
O2       0.17473    0.59507    0.60517   1.00
O2       0.21770    0.54640    0.56590   1.00
O2       0.22670    0.68590    0.56630   1.00
C1       0.39353    0.58057    0.62337   1.00
C1       0.41943    0.81297    0.62337   1.00
C1       0.18703    0.60647    0.62337   1.00
C1       0.47730    0.73330    0.56030   1.00
C1       0.25600    0.52270    0.56030   1.00
C1       0.26670    0.74400    0.56030   1.00
O1       0.33333    0.66667    0.09197   1.00
Zn1      0.33333    0.66667    0.12107   1.00
Zn1      0.38490    0.62380    0.08310   1.00
Zn1      0.23890    0.61510    0.08310   1.00
Zn1      0.37620    0.76110    0.08310   1.00
O2       0.39473    0.64057    0.13107   1.00
O2       0.24583    0.60527    0.13107   1.00
O2       0.35943    0.75417    0.13107   1.00
O2       0.42033    0.59507    0.10517   1.00
O2       0.32870    0.54640    0.06590   1.00
O2       0.45920    0.68590    0.06630   1.00
O2       0.17473    0.57967    0.10517   1.00
O2       0.22670    0.54080    0.06630   1.00
O2       0.21770    0.67130    0.06590   1.00
O2       0.40493    0.82527    0.10517   1.00
O2       0.45360    0.78230    0.06590   1.00
O2       0.31410    0.77330    0.06630   1.00
C1       0.41943    0.60647    0.12337   1.00
C1       0.18703    0.58057    0.12337   1.00
C1       0.39353    0.81297    0.12337   1.00
C1       0.26670    0.52270    0.06030   1.00
C1       0.47730    0.74400    0.06030   1.00
C1       0.25600    0.73330    0.06030   1.00
O1       0.33333    0.66667    0.74137   1.00
Zn1      0.33333    0.66667    0.71227   1.00
Zn1      0.29047    0.71823    0.75023   1.00
Zn1      0.28177    0.57223    0.75023   1.00
Zn1      0.42777    0.70953    0.75023   1.00
O2       0.30723    0.72807    0.70227   1.00
O2       0.27193    0.57917    0.70227   1.00
O2       0.42083    0.69277    0.70227   1.00
O2       0.26173    0.75367    0.72817   1.00
O2       0.21307    0.66203    0.76743   1.00
O2       0.35257    0.79253    0.76703   1.00
O2       0.24633    0.50807    0.72817   1.00
O2       0.20747    0.56003    0.76703   1.00
O2       0.33797    0.55103    0.76743   1.00
O2       0.49193    0.73827    0.72817   1.00
O2       0.44897    0.78693    0.76743   1.00
O2       0.43997    0.64743    0.76703   1.00
C1       0.27313    0.75277    0.70997   1.00
C1       0.24723    0.52037    0.70997   1.00
C1       0.47963    0.72687    0.70997   1.00
C1       0.18937    0.60003    0.77303   1.00
C1       0.41067    0.81063    0.77303   1.00
C1       0.39997    0.58933    0.77303   1.00
C4       0.83021    0.62766    0.48893   1.00
C4       0.85752    0.68194    0.50339   1.00
C3       0.87213    0.61750    0.47488   1.00
C3       0.92899    0.72535    0.50625   1.00
C3       0.75831    0.58134    0.48825   1.00
C3       0.81240    0.69395    0.51561   1.00
C2       0.77540    0.51594    0.46035   1.00
C2       0.91285    0.79382    0.53192   1.00
C3       0.84573    0.56319    0.46108   1.00
C3       0.95594    0.77982    0.52000   1.00
C3       0.73351    0.52648    0.47405   1.00
C3       0.84189    0.75018    0.52935   1.00
H1       0.92335    0.64958    0.47402   1.00
H1       0.96416    0.71861    0.49860   1.00
C5       0.71323    0.59064    0.50143   1.00
C5       0.73998    0.65019    0.51402   1.00
H1       0.87871    0.55852    0.45141   1.00
H1       1.00796    0.80942    0.52129   1.00
H1       0.68277    0.49223    0.47321   1.00
H1       0.81147    0.76063    0.53820   1.00
C6       0.63827    0.53723    0.50206   1.00
C6       0.69280    0.66779    0.52544   1.00
H2       0.63319    0.48677    0.50227   1.00
H2       0.71142    0.72222    0.52390   1.00
H2       0.61511    0.53773    0.51645   1.00
H2       0.64306    0.64590    0.51824   1.00
C6       0.59608    0.54454    0.48438   1.00
C6       0.68305    0.64524    0.54824   1.00
H2       0.62413    0.55403    0.47014   1.00
H2       0.73243    0.65846    0.55485   1.00
C6       0.52197    0.48397    0.48081   1.00
C6       0.64807    0.67383    0.56257   1.00
H2       0.59329    0.59063    0.48719   1.00
H2       0.65325    0.58960    0.54865   1.00
C6       0.52201    0.41885    0.47352   1.00
C6       0.69280    0.75208    0.56544   1.00
C6       0.47777    0.46720    0.50020   1.00
C6       0.57695    0.65678    0.55456   1.00
C6       0.48805    0.50478    0.46394   1.00
C6       0.63825    0.64019    0.58376   1.00
H2       0.55372    0.42927    0.46003   1.00
H2       0.74378    0.76590    0.57078   1.00
H2       0.54138    0.39892    0.48519   1.00
H2       0.69833    0.77930    0.55132   1.00
H2       0.47057    0.37844    0.46973   1.00
H2       0.67026    0.77079    0.57653   1.00
H2       0.42499    0.42829    0.49716   1.00
H2       0.55100    0.67260    0.56536   1.00
H2       0.49676    0.44778    0.51215   1.00
H2       0.58134    0.68306    0.54030   1.00
H2       0.47804    0.51257    0.50589   1.00
H2       0.54490    0.60209    0.55200   1.00
H2       0.51695    0.51649    0.44981   1.00
H2       0.68717    0.65129    0.59021   1.00
H2       0.43622    0.46384    0.46079   1.00
H2       0.61435    0.65892    0.59437   1.00
H2       0.48526    0.54976    0.46837   1.00
H2       0.60589    0.58490    0.58280   1.00
C4       0.36389    0.18930    0.48600   1.00
C4       0.30629    0.16187    0.49927   1.00
C3       0.41819    0.17525    0.48844   1.00
C3       0.29545    0.11293    0.51454   1.00
C3       0.36825    0.23262    0.46959   1.00
C3       0.25708    0.18354    0.49738   1.00
C2       0.47876    0.24202    0.45859   1.00
C2       0.19162    0.10885    0.52676   1.00
C3       0.47375    0.20046    0.47512   1.00
C3       0.24009    0.08742    0.52795   1.00
C3       0.42550    0.25695    0.45630   1.00
C3       0.20163    0.15660    0.51141   1.00
H1       0.41974    0.14672    0.50012   1.00
H1       0.32700    0.09348    0.51637   1.00
C5       0.31658    0.25090    0.46687   1.00
C5       0.26372    0.23052    0.48175   1.00
H1       0.51111    0.18824    0.47767   1.00
H1       0.23530    0.05243    0.53869   1.00
H1       0.43017    0.28749    0.44438   1.00
H1       0.16585    0.17114    0.51064   1.00
C6       0.31807    0.29072    0.44824   1.00
C6       0.21543    0.25853    0.48129   1.00
H2       0.32962    0.26952    0.43499   1.00
H2       0.20907    0.27221    0.49666   1.00
H2       0.26764    0.28218    0.44449   1.00
H2       0.23791    0.30757    0.47364   1.00
C6       0.36848    0.36933    0.45025   1.00
C6       0.14511    0.20877    0.47116   1.00
H2       0.41653    0.37817    0.45684   1.00
H2       0.12673    0.15692    0.47667   1.00
C6       0.38568    0.41349    0.43054   1.00
C6       0.08611    0.22520    0.47382   1.00
H2       0.34711    0.38925    0.46138   1.00
H2       0.15398    0.20695    0.45494   1.00
C6       0.42622    0.39577    0.41511   1.00
C6       0.06272    0.21805    0.49625   1.00
C6       0.32044    0.40498    0.42019   1.00
C6       0.10714    0.29775    0.46615   1.00
C6       0.43110    0.48971    0.43641   1.00
C6       0.02392    0.17327    0.46112   1.00
H2       0.47206    0.40021    0.42205   1.00
H2       0.04857    0.16769    0.50223   1.00
H2       0.39568    0.34399    0.40937   1.00
H2       0.10281    0.25601    0.50588   1.00
H2       0.44204    0.42997    0.40206   1.00
H2       0.01855    0.22494    0.49774   1.00
H2       0.33323    0.43957    0.40731   1.00
H2       0.06419    0.30689    0.46672   1.00
H2       0.28880    0.35321    0.41451   1.00
H2       0.14775    0.33654    0.47548   1.00
H2       0.29022    0.41577    0.43086   1.00
H2       0.12519    0.30461    0.45051   1.00
H2       0.47831    0.49866    0.44360   1.00
H2       0.00653    0.12110    0.46608   1.00
H2       0.44488    0.52265    0.42309   1.00
H2       -0.01888   0.18239    0.46260   1.00
H2       0.40471    0.50571    0.44698   1.00
H2       0.03684    0.17680    0.44505   1.00
C4       0.80973    0.17284    0.48571   1.00
C4       0.83656    0.14219    0.49902   1.00
C3       0.83507    0.24448    0.48537   1.00
C3       0.89512    0.18149    0.51134   1.00
C3       0.75540    0.13102    0.47215   1.00
C3       0.80432    0.06954    0.50021   1.00
C2       0.75778    0.23525    0.45812   1.00
C2       0.88889    0.08029    0.52666   1.00
C3       0.81021    0.27488    0.47194   1.00
C3       0.92037    0.15161    0.52483   1.00
C3       0.73178    0.16403    0.45863   1.00
C3       0.83141    0.04112    0.51422   1.00
H1       0.87208    0.27718    0.49500   1.00
H1       0.92202    0.23329    0.51083   1.00
C5       0.72586    0.05832    0.47239   1.00
C5       0.74692    0.02730    0.48756   1.00
H1       0.83084    0.32686    0.47239   1.00
H1       0.96263    0.18278    0.53336   1.00
H1       0.69354    0.13607    0.44867   1.00
H1       0.80959    -0.01032   0.51561   1.00
C6       0.67351    0.01540    0.45652   1.00
C6       0.70891    -0.04926   0.49052   1.00
H2       0.69049    0.03986    0.44176   1.00
H2       0.70196    -0.06048   0.50671   1.00
H2       0.67202    -0.03278   0.45403   1.00
H2       0.65647    -0.07241   0.48530   1.00
C6       0.59983    0.00078    0.46169   1.00
C6       0.74417    -0.08545   0.47986   1.00
H2       0.60220    0.04758    0.46707   1.00
H2       0.79908    -0.05651   0.48266   1.00
C6       0.54491    -0.02972   0.44449   1.00
C6       0.71838    -0.16166   0.48554   1.00
H2       0.58139    -0.03409   0.47461   1.00
H2       0.73850    -0.08247   0.46350   1.00
C6       0.56182    0.02153    0.42681   1.00
C6       0.73459    -0.16912   0.50794   1.00
C6       0.53720    -0.09705   0.43602   1.00
C6       0.64077    -0.20715   0.48182   1.00
C6       0.47508    -0.04564   0.45347   1.00
C6       0.75585    -0.18853   0.47193   1.00
H2       0.56869    0.07004    0.43234   1.00
H2       0.78889    -0.13674   0.51115   1.00
H2       0.60834    0.03181    0.41898   1.00
H2       0.70649    -0.15504   0.51841   1.00
H2       0.52095    0.00169    0.41558   1.00
H2       0.72072    -0.22165   0.51135   1.00
H2       0.49550    -0.12040   0.42509   1.00
H2       0.62422    -0.26081   0.48443   1.00
H2       0.58356    -0.08793   0.42828   1.00
H2       0.61171    -0.19339   0.49203   1.00
H2       0.52669    -0.13354   0.44823   1.00
H2       0.62777    -0.20174   0.46625   1.00
H2       0.47754    0.00047    0.45949   1.00
H2       0.81096    -0.15852   0.47414   1.00
H2       0.43504    -0.06669   0.44197   1.00
H2       0.73985    -0.24157   0.47543   1.00
H2       0.45964    -0.08269   0.46578   1.00
H2       0.74528    -0.18588   0.45591   1.00
C4       0.62759    0.83001    0.01104   1.00
C4       0.68189    0.85728    -0.00341   1.00
C3       0.61651    0.87212    0.02477   1.00
C3       0.72435    0.92872    -0.00661   1.00
C3       0.58220    0.75798    0.01205   1.00
C3       0.69489    0.81214    -0.01528   1.00
C2       0.51581    0.77522    0.03960   1.00
C2       0.79382    0.91259    -0.03192   1.00
C3       0.56217    0.84573    0.03856   1.00
C3       0.77885    0.95566    -0.02034   1.00
C3       0.52727    0.73317    0.02623   1.00
C3       0.75112    0.84164    -0.02903   1.00
H1       0.64792    0.92350    0.02540   1.00
H1       0.71686    0.96384    0.00078   1.00
C5       0.59248    0.71277    -0.00079   1.00
C5       0.65209    0.73969    -0.01335   1.00
H1       0.55681    0.87883    0.04799   1.00
H1       0.80774    1.00767    -0.02189   1.00
H1       0.49366    0.68232    0.02729   1.00
H1       0.76226    0.81122    -0.03763   1.00
C6       0.53999    0.63750    -0.00110   1.00
C6       0.67078    0.69266    -0.02438   1.00
H2       0.48915    0.63149    -0.00144   1.00
H2       0.72536    0.71223    -0.02278   1.00
H2       0.54097    0.61375    -0.01533   1.00
H2       0.64962    0.64340    -0.01693   1.00
C6       0.54813    0.59686    0.01689   1.00
C6       0.64825    0.68129    -0.04720   1.00
H2       0.55715    0.62562    0.03097   1.00
H2       0.66067    0.73007    -0.05409   1.00
C6       0.48840    0.52252    0.02075   1.00
C6       0.67780    0.64640    -0.06119   1.00
H2       0.59471    0.59482    0.01426   1.00
H2       0.59265    0.65070    -0.04760   1.00
C6       0.42265    0.52173    0.02781   1.00
C6       0.75594    0.69202    -0.06409   1.00
C6       0.47235    0.47734    0.00161   1.00
C6       0.66192    0.57610    -0.05276   1.00
C6       0.51001    0.49029    0.03792   1.00
C6       0.64408    0.63483    -0.08242   1.00
H2       0.43254    0.55408    0.04112   1.00
H2       0.76893    0.74246    -0.06972   1.00
H2       0.40219    0.53987    0.01595   1.00
H2       0.78328    0.69881    -0.04992   1.00
H2       0.38284    0.47023    0.03181   1.00
H2       0.77527    0.66943    -0.07496   1.00
H2       0.43407    0.42451    0.00487   1.00
H2       0.67841    0.55010    -0.06332   1.00
H2       0.45241    0.49509    -0.01053   1.00
H2       0.68834    0.58176    -0.03844   1.00
H2       0.51815    0.47815    -0.00393   1.00
H2       0.60733    0.54347    -0.05017   1.00
H2       0.52126    0.51992    0.05189   1.00
H2       0.65436    0.68311    -0.08917   1.00
H2       0.46967    0.43835    0.04128   1.00
H2       0.66345    0.61092    -0.09281   1.00
H2       0.55548    0.48813    0.03367   1.00
H2       0.58888    0.60178    -0.08143   1.00
C4       0.18930    0.36388    0.01400   1.00
C4       0.16187    0.30629    0.00073   1.00
C3       0.17521    0.41816    0.01157   1.00
C3       0.11290    0.29542    -0.01453   1.00
C3       0.23266    0.36827    0.03040   1.00
C3       0.18358    0.25711    0.00261   1.00
C2       0.24202    0.47876    0.04141   1.00
C2       0.10886    0.19161    -0.02676   1.00
C3       0.20042    0.47372    0.02489   1.00
C3       0.08739    0.24007    -0.02794   1.00
C3       0.25699    0.42552    0.04369   1.00
C3       0.15664    0.20165    -0.01142   1.00
H1       0.14665    0.41970    -0.00010   1.00
H1       0.09342    0.32695    -0.01635   1.00
C5       0.25098    0.31663    0.03312   1.00
C5       0.23060    0.26377    0.01823   1.00
H1       0.18817    0.51107    0.02235   1.00
H1       0.05237    0.23526    -0.03867   1.00
H1       0.28756    0.43021    0.05560   1.00
H1       0.17121    0.16590    -0.01066   1.00
C6       0.29085    0.31814    0.05174   1.00
C6       0.25865    0.21551    0.01868   1.00
H2       0.26966    0.32968    0.06499   1.00
H2       0.27231    0.20916    0.00331   1.00
H2       0.28234    0.26772    0.05548   1.00
H2       0.30770    0.23802    0.02632   1.00
C6       0.36945    0.36858    0.04971   1.00
C6       0.20893    0.14518    0.02882   1.00
H2       0.37825    0.41663    0.04313   1.00
H2       0.15707    0.12678    0.02332   1.00
C6       0.41364    0.38580    0.06942   1.00
C6       0.22540    0.08621    0.02614   1.00
H2       0.38936    0.34724    0.03858   1.00
H2       0.20714    0.15406    0.04504   1.00
C6       0.39593    0.42632    0.08485   1.00
C6       0.21822    0.06282    0.00372   1.00
C6       0.40519    0.32058    0.07976   1.00
C6       0.29798    0.10728    0.03381   1.00
C6       0.48985    0.43126    0.06354   1.00
C6       0.17351    0.02401    0.03885   1.00
H2       0.40032    0.47216    0.07791   1.00
H2       0.16784    0.04864    -0.00225   1.00
H2       0.34416    0.39576    0.09060   1.00
H2       0.25615    0.10292    -0.00592   1.00
H2       0.43015    0.44216    0.09790   1.00
H2       0.22514    0.01867    0.00222   1.00
H2       0.43981    0.33339    0.09263   1.00
H2       0.30714    0.06434    0.03323   1.00
H2       0.35343    0.28891    0.08545   1.00
H2       0.33673    0.14790    0.02447   1.00
H2       0.41598    0.29037    0.06909   1.00
H2       0.30485    0.12533    0.04944   1.00
H2       0.49876    0.47846    0.05634   1.00
H2       0.12134    0.00659    0.03390   1.00
H2       0.52282    0.44505    0.07685   1.00
H2       0.18266    -0.01878   0.03737   1.00
H2       0.50585    0.40488    0.05295   1.00
H2       0.17706    0.03693    0.05492   1.00
C4       0.17284    0.80973    0.01429   1.00
C4       0.14219    0.83656    0.00098   1.00
C3       0.24448    0.83507    0.01463   1.00
C3       0.18149    0.89512    -0.01134   1.00
C3       0.13102    0.75540    0.02785   1.00
C3       0.06954    0.80432    -0.00021   1.00
C2       0.23525    0.75778    0.04188   1.00
C2       0.08029    0.88889    -0.02666   1.00
C3       0.27488    0.81021    0.02806   1.00
C3       0.15161    0.92037    -0.02483   1.00
C3       0.16403    0.73178    0.04137   1.00
C3       0.04112    0.83141    -0.01422   1.00
H1       0.27718    0.87208    0.00500   1.00
H1       0.23329    0.92202    -0.01083   1.00
C5       0.05832    0.72586    0.02761   1.00
C5       0.02730    0.74692    0.01244   1.00
H1       0.32686    0.83084    0.02761   1.00
H1       0.18278    0.96263    -0.03336   1.00
H1       0.13607    0.69354    0.05133   1.00
H1       -0.01032   0.80959    -0.01561   1.00
C6       0.01540    0.67351    0.04348   1.00
C6       -0.04926   0.70891    0.00948   1.00
H2       0.03986    0.69049    0.05824   1.00
H2       -0.06048   0.70196    -0.00671   1.00
H2       -0.03278   0.67202    0.04597   1.00
H2       -0.07241   0.65647    0.01470   1.00
C6       0.00078    0.59983    0.03831   1.00
C6       -0.08545   0.74417    0.02014   1.00
H2       0.04758    0.60220    0.03293   1.00
H2       -0.05651   0.79908    0.01734   1.00
C6       -0.02972   0.54491    0.05551   1.00
C6       -0.16166   0.71838    0.01446   1.00
H2       -0.03409   0.58139    0.02539   1.00
H2       -0.08247   0.73850    0.03650   1.00
C6       0.02153    0.56182    0.07319   1.00
C6       -0.16912   0.73459    -0.00794   1.00
C6       -0.09705   0.53720    0.06398   1.00
C6       -0.20715   0.64077    0.01818   1.00
C6       -0.04564   0.47508    0.04653   1.00
C6       -0.18853   0.75585    0.02807   1.00
H2       0.07004    0.56869    0.06766   1.00
H2       -0.13674   0.78889    -0.01115   1.00
H2       0.03181    0.60834    0.08102   1.00
H2       -0.15504   0.70649    -0.01841   1.00
H2       0.00169    0.52095    0.08442   1.00
H2       -0.22165   0.72072    -0.01135   1.00
H2       -0.12040   0.49550    0.07491   1.00
H2       -0.26081   0.62422    0.01557   1.00
H2       -0.08793   0.58356    0.07172   1.00
H2       -0.19339   0.61171    0.00797   1.00
H2       -0.13354   0.52669    0.05177   1.00
H2       -0.20174   0.62777    0.03375   1.00
H2       0.00047    0.47754    0.04051   1.00
H2       -0.15852   0.81096    0.02586   1.00
H2       -0.06669   0.43504    0.05803   1.00
H2       -0.24157   0.73985    0.02457   1.00
H2       -0.08269   0.45964    0.03422   1.00
H2       -0.18588   0.74528    0.04409   1.00
C4       0.17002    0.36245    0.51455   1.00
C4       0.14275    0.30577    0.50093   1.00
C3       0.12788    0.38197    0.52530   1.00
C3       0.07132    0.26045    0.49874   1.00
C3       0.24207    0.40176    0.51769   1.00
C3       0.18790    0.29308    0.48895   1.00
C2       0.22481    0.47500    0.54284   1.00
C2       0.08745    0.19309    0.47268   1.00
C3       0.15428    0.43629    0.53910   1.00
C3       0.04438    0.20600    0.48499   1.00
C3       0.26687    0.45645    0.53195   1.00
C3       0.15839    0.23731    0.47504   1.00
H1       0.07648    0.35787    0.52336   1.00
H1       0.03621    0.26489    0.50720   1.00
C5       0.28729    0.38635    0.50666   1.00
C5       0.26035    0.33522    0.49111   1.00
H1       0.12116    0.44761    0.54643   1.00
H1       -0.00762   0.17534    0.48407   1.00
H1       0.31774    0.48528    0.53470   1.00
H1       0.18881    0.22695    0.46617   1.00
C6       0.36261    0.42361    0.51171   1.00
C6       0.30735    0.32575    0.47684   1.00
H2       0.36876    0.42678    0.52814   1.00
H2       0.28764    0.31949    0.46143   1.00
H2       0.38643    0.39387    0.50760   1.00
H2       0.35654    0.37208    0.47544   1.00
C6       0.40301    0.49562    0.50150   1.00
C6       0.31896    0.26556    0.48313   1.00
H2       0.37415    0.52224    0.50304   1.00
H2       0.27028    0.22132    0.48743   1.00
C6       0.47738    0.54471    0.50910   1.00
C6       0.35384    0.24128    0.46728   1.00
H2       0.40495    0.48785    0.48521   1.00
H2       0.34967    0.28073    0.49696   1.00
C6       0.47830    0.56720    0.53138   1.00
C6       0.30808    0.20860    0.44839   1.00
C6       0.52271    0.51160    0.50726   1.00
C6       0.42400    0.30062    0.46042   1.00
C6       0.50937    0.60990    0.49573   1.00
C6       0.36566    0.18604    0.47735   1.00
H2       0.44585    0.58980    0.53326   1.00
H2       0.25772    0.16720    0.45275   1.00
H2       0.46035    0.52432    0.54180   1.00
H2       0.30111    0.24582    0.43984   1.00
H2       0.52980    0.60502    0.53608   1.00
H2       0.33067    0.18761    0.43810   1.00
H2       0.57554    0.54789    0.51122   1.00
H2       0.45001    0.28225    0.45052   1.00
H2       0.50514    0.46809    0.51744   1.00
H2       0.41816    0.33882    0.45200   1.00
H2       0.52181    0.49401    0.49180   1.00
H2       0.45673    0.32545    0.47348   1.00
H2       0.47962    0.63570    0.49666   1.00
H2       0.31747    0.14254    0.48230   1.00
H2       0.56131    0.64606    0.50055   1.00
H2       0.38956    0.16711    0.46681   1.00
H2       0.51143    0.59750    0.47985   1.00
H2       0.39881    0.20644    0.49058   1.00
C4       0.63669    0.81004    0.51422   1.00
C4       0.69265    0.83934    0.50034   1.00
C3       0.63286    0.76678    0.53047   1.00
C3       0.75187    0.83332    0.50299   1.00
C3       0.58197    0.82391    0.51197   1.00
C3       0.69020    0.87633    0.48309   1.00
C2       0.52521    0.75347    0.54288   1.00
C2       0.80438    0.89569    0.47176   1.00
C3       0.57905    0.73957    0.54444   1.00
C3       0.80594    0.86030    0.48910   1.00
C3       0.52830    0.79551    0.52659   1.00
C3       0.74617    0.90269    0.46925   1.00
H1       0.66868    0.75285    0.53264   1.00
H1       0.75824    0.80970    0.51521   1.00
C5       0.58157    0.86477    0.49540   1.00
C5       0.63321    0.88654    0.48007   1.00
H1       0.57941    0.70894    0.55587   1.00
H1       0.84710    0.85398    0.49184   1.00
H1       0.48874    0.80460    0.52558   1.00
H1       0.74608    0.92888    0.45673   1.00
C6       0.52722    0.88500    0.49445   1.00
C6       0.62791    0.91940    0.46067   1.00
H2       0.52054    0.90066    0.50950   1.00
H2       0.64120    0.89785    0.44787   1.00
H2       0.54415    0.93158    0.48578   1.00
H2       0.57536    0.90451    0.45718   1.00
C6       0.45797    0.82778    0.48545   1.00
C6       0.67178    0.99919    0.46101   1.00
H2       0.44547    0.77856    0.49203   1.00
H2       0.72211    1.01476    0.46733   1.00
C6       0.39407    0.83667    0.48786   1.00
C6       0.68241    1.03771    0.44042   1.00
H2       0.46576    0.82328    0.46930   1.00
H2       0.64807    1.01786    0.47173   1.00
C6       0.37274    0.83256    0.51041   1.00
C6       0.72560    1.02237    0.42533   1.00
C6       0.40663    0.90500    0.47870   1.00
C6       0.61351    1.01951    0.43037   1.00
C6       0.33338    0.77779    0.47634   1.00
C6       0.72173    1.11561    0.44465   1.00
H2       0.36456    0.78535    0.51742   1.00
H2       0.77417    1.03364    0.43210   1.00
H2       0.41148    0.87504    0.51918   1.00
H2       0.69902    0.96906    0.42071   1.00
H2       0.32549    0.83406    0.51182   1.00
H2       0.73671    1.05302    0.41159   1.00
H2       0.36029    0.90851    0.47914   1.00
H2       0.62139    1.05021    0.41680   1.00
H2       0.44578    0.94824    0.48716   1.00
H2       0.58578    0.96610    0.42580   1.00
H2       0.42311    0.90982    0.46294   1.00
H2       0.58151    1.02850    0.44083   1.00
H2       0.32189    0.72826    0.48238   1.00
H2       0.77122    1.13131    0.45158   1.00
H2       0.28730    0.78152    0.47769   1.00
H2       0.73081    1.14479    0.43068   1.00
H2       0.34480    0.77879    0.46022   1.00
H2       0.69313    1.12989    0.45491   1.00
C4       0.19005    0.82681    0.51424   1.00
C4       0.16074    0.85349    0.50038   1.00
C3       0.23441    0.86664    0.53025   1.00
C3       0.16790    0.91928    0.50282   1.00
C3       0.17508    0.75780    0.51223   1.00
C3       0.12255    0.81351    0.48335   1.00
C2       0.24670    0.77193    0.54289   1.00
C2       0.10432    0.90885    0.47181   1.00
C3       0.26166    0.84006    0.54422   1.00
C3       0.14090    0.94637    0.48894   1.00
C3       0.20356    0.73257    0.52683   1.00
C3       0.09620    0.84311    0.46951   1.00
H1       0.24914    0.91666    0.53224   1.00
H1       0.19242    0.94972    0.51489   1.00
C5       0.13306    0.71607    0.49590   1.00
C5       0.11119    0.74579    0.48055   1.00
H1       0.29311    0.87135    0.55547   1.00
H1       0.14806    0.99424    0.49152   1.00
H1       0.19371    0.68363    0.52599   1.00
H1       0.06918    0.81645    0.45714   1.00
C6       0.11174    0.64118    0.49522   1.00
C6       0.07702    0.70693    0.46136   1.00
H2       0.09660    0.61965    0.51038   1.00
H2       0.09831    0.74107    0.44840   1.00
H2       0.06464    0.61164    0.48678   1.00
H2       0.09100    0.66856    0.45794   1.00
C6       0.16784    0.62769    0.48609   1.00
C6       -0.00268   0.67204    0.46204   1.00
H2       0.21758    0.66421    0.49242   1.00
H2       -0.01724   0.70764    0.46831   1.00
C6       0.15797    0.55457    0.48873   1.00
C6       -0.04236   0.64356    0.44164   1.00
H2       0.17170    0.63923    0.46989   1.00
H2       -0.02134   0.63015    0.47293   1.00
C6       0.16289    0.53824    0.51131   1.00
C6       -0.02694   0.70159    0.42635   1.00
C6       0.08885    0.49904    0.47993   1.00
C6       -0.02563   0.59168    0.43168   1.00
C6       0.21575    0.55123    0.47704   1.00
C6       -0.12002   0.60616    0.44622   1.00
H2       0.21069    0.57716    0.51807   1.00
H2       -0.03718   0.73969    0.43304   1.00
H2       0.12114    0.53559    0.52022   1.00
H2       0.02612    0.72743    0.42149   1.00
H2       0.16069    0.48920    0.51286   1.00
H2       -0.05835   0.68172    0.41276   1.00
H2       0.08458    0.44887    0.48053   1.00
H2       -0.05713   0.56852    0.41827   1.00
H2       0.04632    0.49603    0.48853   1.00
H2       0.02752    0.61646    0.42689   1.00
H2       0.08347    0.51011    0.46415   1.00
H2       -0.03469   0.55102    0.44229   1.00
H2       0.26579    0.58906    0.48282   1.00
H2       -0.13470   0.64081    0.45310   1.00
H2       0.21131    0.50115    0.47854   1.00
H2       -0.14998   0.58570    0.43239   1.00
H2       0.21413    0.56098    0.46089   1.00
H2       -0.13436   0.56367    0.45664   1.00
C4       0.37229    0.16966    0.98891   1.00
C4       0.31653    0.13841    1.00282   1.00
C3       0.42447    0.23926    0.99062   1.00
C3       0.31282    0.17232    1.02057   1.00
C3       0.37681    0.13061    0.97256   1.00
C3       0.26199    0.07066    0.99909   1.00
C2       0.48685    0.23199    0.96139   1.00
C2       0.20219    0.07655    1.03042   1.00
C3       0.48022    0.26949    0.97736   1.00
C3       0.25730    0.14258    1.03392   1.00
C3       0.43461    0.16321    0.95946   1.00
C3       0.20620    0.04234    1.01300   1.00
H1       0.42356    0.27078    1.00144   1.00
H1       0.35065    0.21964    1.02457   1.00
C5       0.32434    0.06113    0.96956   1.00
C5       0.26424    0.03289    0.98193   1.00
H1       0.51629    0.31984    0.97946   1.00
H1       0.25756    0.16981    1.04641   1.00
H1       0.43986    0.13699    0.94774   1.00
H1       0.16625    -0.00552   1.01078   1.00
C6       0.33339    0.01835    0.95355   1.00
C6       0.20298    -0.03580   0.97697   1.00
H2       0.38534    0.02739    0.95431   1.00
H2       0.15682    -0.03248   0.97854   1.00
H2       0.30378    -0.03575   0.95702   1.00
H2       0.20144    -0.04824   0.96099   1.00
C6       0.31482    0.03065    0.93164   1.00
C6       0.19935    -0.09550   0.98997   1.00
H2       0.33651    0.08534    0.92909   1.00
H2       0.21076    -0.07952   1.00581   1.00
C6       0.33635    0.00114    0.91343   1.00
C6       0.13120    -0.16556   0.98946   1.00
H2       0.25961    0.00923    0.93103   1.00
H2       0.24063    -0.10383   0.98499   1.00
C6       0.41501    0.03703    0.91122   1.00
C6       0.07167    -0.16058   0.99935   1.00
C6       0.30713    -0.07672   0.91557   1.00
C6       0.11113    -0.19295   0.96753   1.00
C6       0.30757    0.01390    0.89357   1.00
C6       0.14128    -0.21824   1.00182   1.00
H2       0.43734    0.09224    0.91001   1.00
H2       0.08469    -0.14033   1.01475   1.00
H2       0.43833    0.02665    0.92416   1.00
H2       0.05900    -0.12749   0.99069   1.00
H2       0.42942    0.01948    0.89768   1.00
H2       0.02564    -0.21056   1.00020   1.00
H2       0.31830    -0.09758   0.90214   1.00
H2       0.06631    -0.24394   0.96746   1.00
H2       0.32937    -0.08823   0.92858   1.00
H2       0.09888    -0.16010   0.95853   1.00
H2       0.25193    -0.10308   0.91758   1.00
H2       0.15275    -0.19559   0.96007   1.00
H2       0.32725    0.06833    0.89122   1.00
H2       0.15486    -0.20164   1.01752   1.00
H2       0.32168    -0.00546   0.88037   1.00
H2       0.09480    -0.26801   1.00202   1.00
H2       0.25202    -0.01137   0.89403   1.00
H2       0.18181    -0.22505   0.99532   1.00
C4       0.81084    0.63595    0.98606   1.00
C4       0.83990    0.69153    1.00007   1.00
C3       0.77885    0.63824    0.96770   1.00
C3       0.84542    0.75575    0.99572   1.00
C3       0.81329    0.57531    0.99035   1.00
C3       0.86476    0.68354    1.01921   1.00
C2       0.75500    0.52490    0.95724   1.00
C2       0.89562    0.80289    1.02878   1.00
C3       0.75206    0.58463    0.95366   1.00
C3       0.87209    0.80968    1.00965   1.00
C3       0.78575    0.52200    0.97560   1.00
C3       0.89120    0.73960    1.03302   1.00
H1       0.77322    0.67869    0.96393   1.00
H1       0.83090    0.76597    0.98219   1.00
C5       0.84227    0.56887    1.00898   1.00
C5       0.86319    0.62107    1.02411   1.00
H1       0.72989    0.58954    0.94066   1.00
H1       0.87443    0.85462    1.00563   1.00
H1       0.78696    0.47829    0.97804   1.00
H1       0.90893    0.73571    1.04684   1.00
C6       0.85109    0.50758    1.01234   1.00
C6       0.88287    0.61073    1.04521   1.00
H2       0.87103    0.49758    0.99852   1.00
H2       0.85977    0.62867    1.05632   1.00
H2       0.89171    0.51858    1.02309   1.00
H2       0.85927    0.55697    1.04906   1.00
C6       0.78418    0.44278    1.01964   1.00
C6       0.96190    0.64506    1.04831   1.00
H2       0.74096    0.43700    1.01069   1.00
H2       0.98705    0.69626    1.04175   1.00
C6       0.78282    0.37298    1.01927   1.00
C6       0.98872    0.65089    1.07052   1.00
H2       0.77395    0.45225    1.03514   1.00
H2       0.97974    0.61648    1.03933   1.00
C6       0.78606    0.35023    0.99730   1.00
C6       0.97503    0.69989    1.08353   1.00
C6       0.84202    0.37588    1.03184   1.00
C6       0.95643    0.58034    1.08105   1.00
C6       0.71465    0.31766    1.02878   1.00
C6       1.06710    0.68055    1.06977   1.00
H2       0.74555    0.34874    0.98794   1.00
H2       0.99625    0.74988    1.07633   1.00
H2       0.83463    0.38473    0.99011   1.00
H2       0.92066    0.67999    1.08573   1.00
H2       0.78031    0.29943    0.99711   1.00
H2       0.99804    0.70730    1.09853   1.00
H2       0.83779    0.32577    1.03269   1.00
H2       0.97903    0.58429    1.09596   1.00
H2       0.89120    0.41072    1.02499   1.00
H2       0.90180    0.55922    1.08322   1.00
H2       0.84176    0.39316    1.04727   1.00
H2       0.96410    0.54443    1.07198   1.00
H2       0.67107    0.31302    1.02032   1.00
H2       1.09252    0.73083    1.06265   1.00
H2       0.71108    0.26776    1.02874   1.00
H2       1.08834    0.68603    1.08498   1.00
H2       0.70996    0.33014    1.04447   1.00
H2       1.07999    0.64745    1.06112   1.00
C4       0.82683    0.19007    0.98576   1.00
C4       0.85351    0.16075    0.99962   1.00
C3       0.86670    0.23456    0.96978   1.00
C3       0.91937    0.16805    0.99720   1.00
C3       0.75777    0.17496    0.98774   1.00
C3       0.81347    0.12242    1.01662   1.00
C2       0.77195    0.24672    0.95711   1.00
C2       0.90887    0.10433    1.02818   1.00
C3       0.84013    0.26181    0.95581   1.00
C3       0.94645    0.14104    1.01108   1.00
C3       0.73254    0.20345    0.97314   1.00
C3       0.84307    0.09607    1.03046   1.00
H1       0.91676    0.24938    0.96781   1.00
H1       0.94987    0.19268    0.98515   1.00
C5       0.71599    0.13280    1.00403   1.00
C5       0.74569    0.11091    1.01939   1.00
H1       0.87145    0.29336    0.94458   1.00
H1       0.99438    0.14831    1.00851   1.00
H1       0.68357    0.19350    0.97396   1.00
H1       0.81636    0.06894    1.04280   1.00
C6       0.64106    0.11135    1.00469   1.00
C6       0.70674    0.07658    1.03855   1.00
H2       0.61963    0.09627    0.98951   1.00
H2       0.74080    0.09784    1.05153   1.00
H2       0.61154    0.06418    1.01310   1.00
H2       0.66829    0.09045    1.04197   1.00
C6       0.62739    0.16731    1.01383   1.00
C6       0.67199    -0.00310   1.03784   1.00
H2       0.66389    0.21711    1.00753   1.00
H2       0.70769    -0.01753   1.03157   1.00
C6       0.55424    0.15731    1.01116   1.00
C6       0.64343    -0.04292   1.05820   1.00
H2       0.63883    0.17109    1.03003   1.00
H2       0.63015    -0.02176   1.02692   1.00
C6       0.53801    0.16234    0.98858   1.00
C6       0.70139    -0.02750   1.07353   1.00
C6       0.49873    0.08810    1.01992   1.00
C6       0.59141    -0.02638   1.06815   1.00
C6       0.55071    0.21496    1.02287   1.00
C6       0.60618    -0.12055   1.05359   1.00
H2       0.57691    0.21021    0.98185   1.00
H2       0.73959    -0.03761   1.06684   1.00
H2       0.53549    0.12068    0.97965   1.00
H2       0.72713    0.02553    1.07841   1.00
H2       0.48894    0.16005    0.98701   1.00
H2       0.68149    -0.05900   1.08710   1.00
H2       0.44853    0.08374    1.01930   1.00
H2       0.56821    -0.05797   1.08155   1.00
H2       0.49586    0.04566    1.01130   1.00
H2       0.61608    0.02674    1.07298   1.00
H2       0.50973    0.08265    1.03570   1.00
H2       0.55078    -0.03544   1.05753   1.00
H2       0.58851    0.26506    1.01712   1.00
H2       0.64093    -0.13511   1.04672   1.00
H2       0.50059    0.21043    1.02135   1.00
H2       0.58567    -0.15061   1.06740   1.00
H2       0.56037    0.21326    1.03902   1.00
H2       0.56373    -0.13490   1.04314   1.00
C4       0.49266    0.96974    0.81922   1.00
C4       0.52300    1.02730    0.83250   1.00
C3       0.42283    0.91803    0.82076   1.00
C3       0.48414    1.04092    0.84680   1.00
C3       0.53296    0.96272    0.80374   1.00
C3       0.59487    1.07362    0.83162   1.00
C2       0.43040    0.85503    0.79175   1.00
C2       0.58477    1.14183    0.86004   1.00
C3       0.39245    0.86257    0.80741   1.00
C3       0.51400    1.09620    0.86024   1.00
C3       0.49998    0.90567    0.79037   1.00
C3       0.62335    1.12909    0.84565   1.00
H1       0.39158    0.91838    0.83178   1.00
H1       0.43259    1.01157    0.84786   1.00
C5       0.60423    1.01161    0.80197   1.00
C5       0.63623    1.06419    0.81696   1.00
H1       0.34178    0.82716    0.80927   1.00
H1       0.48321    1.10307    0.87025   1.00
H1       0.52682    0.89918    0.77909   1.00
H1       0.67431    1.16284    0.84558   1.00
C6       0.64450    1.00757    0.78423   1.00
C6       0.71302    1.10924    0.81764   1.00
H2       0.61450    0.99754    0.77042   1.00
H2       0.73005    1.11473    0.83334   1.00
H2       0.68875    1.05688    0.78086   1.00
H2       0.73865    1.08442    0.81082   1.00
C6       0.66828    0.95401    0.78739   1.00
C6       0.73903    1.18025    0.80722   1.00
H2       0.62625    0.90701    0.79363   1.00
H2       0.70684    1.20124    0.81180   1.00
C6       0.69678    0.93448    0.76848   1.00
C6       0.81508    1.23641    0.81088   1.00
H2       0.70750    0.97360    0.79916   1.00
H2       0.73104    1.17160    0.79089   1.00
C6       0.64073    0.89615    0.75226   1.00
C6       0.82822    1.25971    0.83336   1.00
C6       0.75747    0.99806    0.75868   1.00
C6       0.86494    1.21156    0.80455   1.00
C6       0.72269    0.88594    0.77549   1.00
C6       0.83110    1.29964    0.79775   1.00
H2       0.59665    0.85156    0.75878   1.00
H2       0.79305    1.27653    0.83839   1.00
H2       0.62311    0.92880    0.74574   1.00
H2       0.82198    1.21869    0.84335   1.00
H2       0.65984    0.87862    0.73980   1.00
H2       0.88003    1.30208    0.83547   1.00
H2       0.78004    0.98345    0.74644   1.00
H2       0.91782    1.25261    0.80579   1.00
H2       0.74098    1.03179    0.75224   1.00
H2       0.85901    1.16998    0.81427   1.00
H2       0.79706    1.02678    0.76989   1.00
H2       0.85580    1.19351    0.78890   1.00
H2       0.68152    0.83975    0.78235   1.00
H2       0.79768    1.31970    0.80177   1.00
H2       0.74273    0.87046    0.76276   1.00
H2       0.88365    1.34056    0.79989   1.00
H2       0.76340    0.91063    0.78668   1.00
H2       0.82409    1.28676    0.78165   1.00
C4       0.02978    0.52360    0.81904   1.00
C4       -0.02770   0.49677    0.83235   1.00
C3       0.07609    0.49828    0.81870   1.00
C3       -0.04694   0.43822    0.84468   1.00
C3       0.04228    0.57791    0.80547   1.00
C3       -0.06812   0.52900    0.83354   1.00
C2       0.14413    0.57554    0.79145   1.00
C2       -0.14192   0.44444    0.85999   1.00
C3       0.13135    0.52313    0.80527   1.00
C3       -0.10208   0.41297    0.85816   1.00
C3       0.09891    0.60153    0.79196   1.00
C3       -0.12363   0.50191    0.84755   1.00
H1       0.07180    0.46128    0.82834   1.00
H1       -0.02203   0.41133    0.84417   1.00
C5       -0.00090   0.60744    0.80571   1.00
C5       -0.05298   0.58638    0.82088   1.00
H1       0.16272    0.50252    0.80573   1.00
H1       -0.11316   0.37072    0.86669   1.00
H1       0.10917    0.63976    0.78199   1.00
H1       -0.15327   0.52371    0.84893   1.00
C6       0.00852    0.65977    0.78983   1.00
C6       -0.09155   0.62437    0.82384   1.00
H2       0.01601    0.64279    0.77508   1.00
H2       -0.09581   0.63134    0.84002   1.00
H2       -0.03817   0.66125    0.78735   1.00
H2       -0.06226   0.67682    0.81861   1.00
C6       0.06757    0.73346    0.79500   1.00
C6       -0.16299   0.58909    0.81317   1.00
H2       0.11201    0.73111    0.80039   1.00
H2       -0.18895   0.53418    0.81598   1.00
C6       0.09197    0.78836    0.77779   1.00
C6       -0.21343   0.61487    0.81885   1.00
H2       0.05114    0.75191    0.80792   1.00
H2       -0.15434   0.59475    0.79681   1.00
C6       0.12632    0.77145    0.76012   1.00
C6       -0.23709   0.59868    0.84125   1.00
C6       0.03234    0.79604    0.76933   1.00
C6       -0.18132   0.69248    0.81512   1.00
C6       0.14587    0.85821    0.78678   1.00
C6       -0.27777   0.57737    0.80524   1.00
H2       0.16797    0.76460    0.76566   1.00
H2       -0.25901   0.54437    0.84446   1.00
H2       0.09009    0.72492    0.75229   1.00
H2       -0.19492   0.62679    0.85172   1.00
H2       0.14734    0.81231    0.74889   1.00
H2       -0.27577   0.61253    0.84466   1.00
H2       0.05068    0.83774    0.75839   1.00
H2       -0.21845   0.70901    0.81773   1.00
H2       -0.00489   0.74968    0.76159   1.00
H2       -0.13851   0.72155    0.82533   1.00
H2       0.00636    0.80656    0.78153   1.00
H2       -0.16293   0.70546    0.79956   1.00
H2       0.18953    0.85577    0.79279   1.00
H2       -0.30286   0.52226    0.80746   1.00
H2       0.16485    0.89823    0.77527   1.00
H2       -0.31482   0.59336    0.80874   1.00
H2       0.12426    0.87365    0.79908   1.00
H2       -0.26455   0.58793    0.78922   1.00
C4       0.47641    0.50620    0.81904   1.00
C4       0.50325    0.47555    0.83235   1.00
C3       0.50161    0.57781    0.81874   1.00
C3       0.56169    0.51486    0.84472   1.00
C3       0.42222    0.46440    0.80544   1.00
C3       0.47114    0.40290    0.83350   1.00
C2       0.42446    0.56860    0.79145   1.00
C2       0.55559    0.41366    0.85999   1.00
C3       0.47675    0.60821    0.80532   1.00
C3       0.58695    0.48498    0.85820   1.00
C3       0.39860    0.49740    0.79193   1.00
C3       0.49823    0.37448    0.84751   1.00
H1       0.53851    0.61049    0.82841   1.00
H1       0.58851    0.56667    0.84424   1.00
C5       0.39283    0.39171    0.80563   1.00
C5       0.41388    0.36067    0.82080   1.00
H1       0.49727    0.66018    0.80580   1.00
H1       0.62912    0.51615    0.86676   1.00
H1       0.36045    0.46945    0.78194   1.00
H1       0.47651    0.32304    0.84886   1.00
C6       0.34064    0.34883    0.78972   1.00
C6       0.37599    0.28408    0.82372   1.00
H2       0.35769    0.37341    0.77499   1.00
H2       0.36893    0.27274    0.83989   1.00
H2       0.33928    0.30073    0.78722   1.00
H2       0.32357    0.26088    0.81846   1.00
C6       0.26686    0.33401    0.79486   1.00
C6       0.41145    0.24810    0.81305   1.00
H2       0.26908    0.38072    0.80026   1.00
H2       0.46635    0.27713    0.81589   1.00
C6       0.21208    0.30353    0.77761   1.00
C6       0.38578    0.17189    0.81869   1.00
H2       0.24839    0.29904    0.80775   1.00
H2       0.40590    0.25119    0.79669   1.00
C6       0.22902    0.35489    0.75997   1.00
C6       0.40186    0.16431    0.84110   1.00
C6       0.20460    0.23633    0.76912   1.00
C6       0.30821    0.12629    0.81491   1.00
C6       0.14214    0.28740    0.78656   1.00
C6       0.42347    0.14524    0.80509   1.00
H2       0.23574    0.40332    0.76552   1.00
H2       0.45613    0.19676    0.84434   1.00
H2       0.27563    0.36533    0.75216   1.00
H2       0.37361    0.17822    0.85156   1.00
H2       0.18824    0.33506    0.74871   1.00
H2       0.38808    0.11178    0.84448   1.00
H2       0.16298    0.21299    0.75816   1.00
H2       0.29176    0.07263    0.81749   1.00
H2       0.25104    0.24561    0.76140   1.00
H2       0.27901    0.13988    0.82512   1.00
H2       0.19406    0.19977    0.78130   1.00
H2       0.29531    0.13177    0.79935   1.00
H2       0.14444    0.33341    0.79259   1.00
H2       0.47856    0.17533    0.80733   1.00
H2       0.10219    0.26636    0.77503   1.00
H2       0.40755    0.09220    0.80856   1.00
H2       0.12667    0.25026    0.79885   1.00
H2       0.41300    0.14798    0.78906   1.00
C4       0.29373    0.15764    0.34414   1.00
C4       0.34897    0.18412    0.33001   1.00
C3       0.25237    0.18797    0.34710   1.00
C3       0.36221    0.23821    0.31638   1.00
C3       0.27860    0.09866    0.35590   1.00
C3       0.39313    0.15600    0.32925   1.00
C2       0.17991    0.10217    0.37198   1.00
C2       0.46266    0.23998    0.30212   1.00
C3       0.19697    0.16099    0.36051   1.00
C3       0.41748    0.26560    0.30292   1.00
C3       0.22150    0.07256    0.36931   1.00
C3       0.44906    0.18559    0.31540   1.00
H1       0.26137    0.23121    0.33978   1.00
H1       0.33179    0.25928    0.31558   1.00
C5       0.32018    0.06758    0.35420   1.00
C5       0.38069    0.09960    0.34200   1.00
H1       0.16896    0.18509    0.36190   1.00
H1       0.42440    0.30476    0.29353   1.00
H1       0.20885    0.03043    0.37782   1.00
H1       0.48184    0.16729    0.31452   1.00
C6       0.29929    0.00112    0.36509   1.00
C6       0.43186    0.07515    0.34260   1.00
H2       0.24464    -0.03286   0.36316   1.00
H2       0.48315    0.11920    0.34325   1.00
H2       0.31994    -0.02762   0.35774   1.00
H2       0.42929    0.04962    0.35680   1.00
C6       0.32027    0.01099    0.38803   1.00
C6       0.42377    0.02662    0.32454   1.00
H2       0.30850    0.04788    0.39487   1.00
H2       0.41633    0.04737    0.31041   1.00
C6       0.28850    -0.05401   0.40182   1.00
C6       0.48258    0.01042    0.32101   1.00
H2       0.37574    0.03485    0.38876   1.00
H2       0.37637    -0.02151   0.32688   1.00
C6       0.21037    -0.08501   0.40426   1.00
C6       0.54961    0.07474    0.31436   1.00
C6       0.30332    -0.10923   0.39345   1.00
C6       0.49637    -0.02022   0.34022   1.00
C6       0.32091    -0.03323   0.42325   1.00
C6       0.46102    -0.04293   0.30369   1.00
H2       0.19814    -0.04696   0.40984   1.00
H2       0.54133    0.09824    0.30101   1.00
H2       0.18381    -0.10460   0.38992   1.00
H2       0.57000    0.11286    0.32636   1.00
H2       0.18948    -0.12736   0.41500   1.00
H2       0.58885    0.06202    0.31058   1.00
H2       0.28524    -0.15222   0.40390   1.00
H2       0.53397    -0.03583   0.33718   1.00
H2       0.27769    -0.12904   0.37898   1.00
H2       0.51620    0.01700    0.35250   1.00
H2       0.35792    -0.08832   0.39119   1.00
H2       0.44964    -0.06478   0.34548   1.00
H2       0.31130    0.00526    0.42996   1.00
H2       0.45134    -0.02350   0.28967   1.00
H2       0.29997    -0.07695   0.43350   1.00
H2       0.50074    -0.05559   0.30056   1.00
H2       0.37601    -0.01221   0.42259   1.00
H2       0.41464    -0.09012   0.30766   1.00
C4       0.86985    0.70520    0.34457   1.00
C4       0.84326    0.65101    0.33009   1.00
C3       0.91505    0.71029    0.36039   1.00
C3       0.86549    0.60229    0.32909   1.00
C3       0.85098    0.75668    0.34345   1.00
C3       0.79254    0.64455    0.31592   1.00
C2       0.92629    0.81660    0.37327   1.00
C2       0.78713    0.53941    0.30146   1.00
C3       0.94274    0.76441    0.37425   1.00
C3       0.83812    0.54796    0.31529   1.00
C3       0.88061    0.81115    0.35779   1.00
C3       0.76570    0.58828    0.30219   1.00
H1       0.92902    0.67450    0.36255   1.00
H1       0.90290    0.60484    0.33821   1.00
C5       0.80344    0.75276    0.32839   1.00
C5       0.77020    0.69369    0.31563   1.00
H1       0.97527    0.76528    0.38526   1.00
H1       0.85614    0.51439    0.31539   1.00
H1       0.86880    0.84895    0.35739   1.00
H1       0.72924    0.58171    0.29198   1.00
C6       0.78957    0.81123    0.32600   1.00
C6       0.71144    0.68221    0.30206   1.00
H2       0.83771    0.85924    0.32671   1.00
H2       0.67135    0.62899    0.30312   1.00
H2       0.77211    0.81316    0.31079   1.00
H2       0.68555    0.70834    0.30774   1.00
C6       0.73673    0.80917    0.34176   1.00
C6       0.73339    0.70425    0.27951   1.00
H2       0.74834    0.79731    0.35680   1.00
H2       0.76783    0.68632    0.27459   1.00
C6       0.72977    0.87433    0.34374   1.00
C6       0.67549    0.68107    0.26328   1.00
H2       0.68679    0.76611    0.33785   1.00
H2       0.76396    0.75986    0.27916   1.00
C6       0.79560    0.93564    0.35240   1.00
C6       0.63628    0.60253    0.26047   1.00
C6       0.71237    0.89476    0.32311   1.00
C6       0.62430    0.70501    0.26884   1.00
C6       0.67079    0.85866    0.35872   1.00
C6       0.70846    0.71356    0.24259   1.00
H2       0.80989    0.92249    0.36682   1.00
H2       0.67116    0.58387    0.25686   1.00
H2       0.83836    0.95213    0.34200   1.00
H2       0.60832    0.57646    0.27412   1.00
H2       0.78862    0.97934    0.35504   1.00
H2       0.59926    0.58730    0.24816   1.00
H2       0.70283    0.93719    0.32492   1.00
H2       0.58702    0.69287    0.25674   1.00
H2       0.75435    0.91082    0.31241   1.00
H2       0.59623    0.67996    0.28260   1.00
H2       0.66699    0.85201    0.31647   1.00
H2       0.65078    0.75999    0.27132   1.00
H2       0.68089    0.84461    0.37362   1.00
H2       0.74462    0.69768    0.23785   1.00
H2       0.66421    0.90290    0.36071   1.00
H2       0.67000    0.69847    0.23070   1.00
H2       0.62253    0.81662    0.35322   1.00
H2       0.73580    0.76913    0.24349   1.00
C4       0.83577    0.13037    0.34450   1.00
C4       0.80827    0.15710    0.33003   1.00
C3       0.79484    0.08253    0.35969   1.00
C3       0.73698    0.13260    0.32835   1.00
C3       0.90683    0.15182    0.34403   1.00
C3       0.85301    0.21030    0.31657   1.00
C2       0.89066    0.07375    0.37316   1.00
C2       0.75287    0.21339    0.30143   1.00
C3       0.82125    0.05475    0.37353   1.00
C3       0.71003    0.16003    0.31458   1.00
C3       0.93165    0.12202    0.35832   1.00
C3       0.82355    0.23710    0.30283   1.00
H1       0.74443    0.06658    0.36138   1.00
H1       0.70190    0.09344    0.33694   1.00
C5       0.95114    0.20199    0.32964   1.00
C5       0.92498    0.23508    0.31695   1.00
H1       0.78899    0.02026    0.38405   1.00
H1       0.65817    0.14030    0.31417   1.00
H1       0.98178    0.13563    0.35837   1.00
H1       0.85374    0.27527    0.29312   1.00
C6       1.02461    0.21879    0.32788   1.00
C6       0.97238    0.29620    0.30417   1.00
H2       1.02637    0.17159    0.32824   1.00
H2       0.95721    0.33476    0.30543   1.00
H2       1.04548    0.23858    0.31295   1.00
H2       1.02366    0.32292    0.31041   1.00
C6       1.07229    0.27056    0.34438   1.00
C6       0.97610    0.27757    0.28148   1.00
H2       1.04703    0.25636    0.35916   1.00
H2       0.92473    0.24237    0.27593   1.00
C6       1.14528    0.28004    0.34693   1.00
C6       1.01106    0.33767    0.26594   1.00
H2       1.07771    0.32020    0.34089   1.00
H2       1.00293    0.24872    0.28109   1.00
C6       1.14235    0.21435    0.35507   1.00
C6       0.96969    0.37481    0.26313   1.00
C6       1.18560    0.30118    0.32673   1.00
C6       1.08486    0.39010    0.27241   1.00
C6       1.18519    0.33761    0.36264   1.00
C6       1.01443    0.30800    0.24502   1.00
H2       1.11322    0.19744    0.36917   1.00
H2       0.91698    0.33897    0.25888   1.00
H2       1.11858    0.17275    0.34418   1.00
H2       0.96882    0.40052    0.27699   1.00
H2       1.19340    0.22289    0.35813   1.00
H2       0.99185    0.41346    0.25126   1.00
H2       1.23797    0.31239    0.32898   1.00
H2       1.11040    0.42911    0.26078   1.00
H2       1.16220    0.26041    0.31554   1.00
H2       1.08512    0.41595    0.28638   1.00
H2       1.18721    0.34653    0.32045   1.00
H2       1.11470    0.36502    0.27491   1.00
H2       1.15918    0.32487    0.37729   1.00
H2       0.96344    0.27111    0.23964   1.00
H2       1.23648    0.34585    0.36505   1.00
H2       1.03810    0.34808    0.23359   1.00
H2       1.19019    0.38577    0.35755   1.00
H2       1.04422    0.28227    0.24592   1.00
C4       0.83336    0.69598    0.84783   1.00
C4       0.80507    0.63868    0.83445   1.00
C3       0.80053    0.73449    0.85183   1.00
C3       0.73882    0.61155    0.82581   1.00
C3       0.89692    0.71635    0.85771   1.00
C3       0.84374    0.60657    0.82936   1.00
C2       0.88884    0.80982    0.87567   1.00
C2       0.74913    0.52490    0.80659   1.00
C3       0.82714    0.78947    0.86539   1.00
C3       0.71173    0.55662    0.81223   1.00
C3       0.92210    0.77240    0.87150   1.00
C3       0.81446    0.55100    0.81538   1.00
H1       0.75638    0.72445    0.84488   1.00
H1       0.70749    0.63025    0.82922   1.00
C5       0.93376    0.68136    0.85365   1.00
C5       0.90956    0.62979    0.83824   1.00
H1       0.80086    0.81499    0.86767   1.00
H1       0.66375    0.53963    0.80646   1.00
H1       0.96689    0.78810    0.87892   1.00
H1       0.84059    0.52716    0.81128   1.00
C6       0.99714    0.69872    0.86580   1.00
C6       0.95289    0.60017    0.83108   1.00
H2       0.98762    0.70367    0.88174   1.00
H2       0.95058    0.59658    0.81459   1.00
H2       1.00687    0.65635    0.86626   1.00
H2       1.00686    0.63523    0.83361   1.00
C6       1.06255    0.76375    0.85783   1.00
C6       0.93286    0.52994    0.84118   1.00
H2       1.05039    0.80378    0.85451   1.00
H2       0.87736    0.49767    0.84133   1.00
C6       1.12734    0.79527    0.87170   1.00
C6       0.96338    0.48748    0.83177   1.00
H2       1.07602    0.75093    0.84322   1.00
H2       0.94786    0.53949    0.85712   1.00
C6       1.11592    0.82493    0.89157   1.00
C6       0.93569    0.46230    0.81008   1.00
C6       1.14916    0.74230    0.87705   1.00
C6       1.04232    0.52888    0.83115   1.00
C6       1.18705    0.85482    0.86007   1.00
C6       0.94188    0.42354    0.84519   1.00
H2       1.09936    0.86173    0.88831   1.00
H2       0.88000    0.43380    0.80995   1.00
H2       1.07735    0.78505    0.90111   1.00
H2       0.95250    0.50468    0.79951   1.00
H2       1.16273    0.85094    0.90047   1.00
H2       0.95351    0.42888    0.80420   1.00
H2       1.19704    0.76597    0.88549   1.00
H2       1.06322    0.49732    0.82593   1.00
H2       1.11085    0.70153    0.88645   1.00
H2       1.06020    0.57200    0.82079   1.00
H2       1.15615    0.71957    0.86333   1.00
H2       1.06309    0.54842    0.84617   1.00
H2       1.17452    0.89411    0.85611   1.00
H2       0.88643    0.39206    0.84597   1.00
H2       1.23346    0.87884    0.86922   1.00
H2       0.96165    0.39192    0.83915   1.00
H2       1.19851    0.83684    0.84607   1.00
H2       0.96114    0.43800    0.86064   1.00
C4       0.29533    0.12968    0.84477   1.00
C4       0.35157    0.15449    0.83103   1.00
C3       0.23526    0.13262    0.84034   1.00
C3       0.34885    0.17729    0.81109   1.00
C3       0.29844    0.10076    0.86374   1.00
C3       0.41325    0.15685    0.83721   1.00
C2       0.18022    0.07650    0.87210   1.00
C2       0.46639    0.20779    0.80359   1.00
C3       0.17927    0.10657    0.85352   1.00
C3       0.40454    0.20346    0.79780   1.00
C3       0.24017    0.07446    0.87669   1.00
C3       0.46893    0.18422    0.82325   1.00
H1       0.23021    0.15441    0.82746   1.00
H1       0.30606    0.17510    0.80541   1.00
C5       0.35868    0.09900    0.86942   1.00
C5       0.41808    0.13195    0.85678   1.00
H1       0.13734    0.10999    0.84940   1.00
H1       0.39941    0.21933    0.78365   1.00
H1       0.24026    0.05309    0.89024   1.00
H1       0.51378    0.18716    0.82714   1.00
C6       0.35856    0.06179    0.88852   1.00
C6       0.48583    0.14144    0.86393   1.00
H2       0.31087    0.01336    0.88934   1.00
H2       0.52602    0.19294    0.86020   1.00
H2       0.39581    0.04495    0.88773   1.00
H2       0.48895    0.14173    0.88039   1.00
C6       0.37145    0.10514    0.90827   1.00
C6       0.50170    0.08630    0.85535   1.00
H2       0.34113    0.13047    0.90777   1.00
H2       0.48915    0.07855    0.83920   1.00
C6       0.35751    0.06727    0.92910   1.00
C6       0.57604    0.09942    0.85795   1.00
H2       0.42452    0.14632    0.90804   1.00
H2       0.46667    0.03772    0.86257   1.00
C6       0.28066    0.01503    0.93205   1.00
C6       0.62810    0.16181    0.84539   1.00
C6       0.39915    0.03031    0.93133   1.00
C6       0.59826    0.11020    0.88050   1.00
C6       0.37942    0.12078    0.94638   1.00
C6       0.57835    0.03598    0.85007   1.00
H2       0.24973    0.03933    0.93023   1.00
H2       0.61324    0.15628    0.82943   1.00
H2       0.26277    -0.02650   0.92113   1.00
H2       0.63221    0.20900    0.85095   1.00
H2       0.27083    -0.00763   0.94715   1.00
H2       0.67890    0.16769    0.84618   1.00
H2       0.39285    0.00822    0.94644   1.00
H2       0.64815    0.11442    0.88231   1.00
H2       0.38244    -0.01109   0.92039   1.00
H2       0.60202    0.15691    0.88642   1.00
H2       0.45334    0.06569    0.92890   1.00
H2       0.56167    0.06761    0.88976   1.00
H2       0.35094    0.14791    0.94563   1.00
H2       0.56374    0.02651    0.83410   1.00
H2       0.37023    0.09668    0.96128   1.00
H2       0.62948    0.04289    0.85145   1.00
H2       0.43364    0.15837    0.94537   1.00
H2       0.54360    -0.00959   0.85864   1.00
C4       0.86980    0.16455    0.84456   1.00
C4       0.84518    0.19589    0.83073   1.00
C3       0.85841    0.09731    0.84158   1.00
C3       0.81382    0.16518    0.81193   1.00
C3       0.90725    0.20104    0.86214   1.00
C3       0.85185    0.26047    0.83562   1.00
C2       0.92243    0.10236    0.87199   1.00
C2       0.79236    0.25764    0.80320   1.00
C3       0.88415    0.06719    0.85480   1.00
C3       0.78788    0.19484    0.79860   1.00
C3       0.93292    0.16868    0.87517   1.00
C3       0.82441    0.28878    0.82169   1.00
H1       0.83040    0.06745    0.82980   1.00
H1       0.80926    0.12043    0.80711   1.00
C5       0.91789    0.26778    0.86640   1.00
C5       0.88550    0.29523    0.85392   1.00
H1       0.87440    0.01864    0.85176   1.00
H1       0.76559    0.16997    0.78532   1.00
H1       0.96018    0.19318    0.88774   1.00
H1       0.82775    0.33439    0.82470   1.00
C6       0.96369    0.30863    0.88383   1.00
C6       0.88575    0.35987    0.85995   1.00
H2       1.00928    0.30391    0.88369   1.00
H2       0.83506    0.35290    0.85749   1.00
H2       0.98517    0.36311    0.88155   1.00
H2       0.89175    0.36836    0.87623   1.00
C6       0.92696    0.28841    0.90494   1.00
C6       0.94206    0.42495    0.84882   1.00
H2       0.89692    0.23288    0.90615   1.00
H2       0.94291    0.41361    0.83274   1.00
C6       0.97255    0.31597    0.92437   1.00
C6       0.93760    0.49161    0.85034   1.00
H2       0.88977    0.30572    0.90527   1.00
H2       0.99154    0.43580    0.85475   1.00
C6       1.01962    0.28491    0.92681   1.00
C6       0.87364    0.48401    0.83930   1.00
C6       1.01664    0.39478    0.92417   1.00
C6       0.93698    0.51242    0.87269   1.00
C6       0.92532    0.29495    0.94325   1.00
C6       1.00131    0.55042    0.83985   1.00
H2       0.99010    0.22925    0.92667   1.00
H2       0.87199    0.46825    0.82356   1.00
H2       1.05709    0.30113    0.91465   1.00
H2       0.82679    0.44628    0.84668   1.00
H2       1.04769    0.30071    0.94109   1.00
H2       0.87347    0.53211    0.83923   1.00
H2       1.04450    0.41376    0.93840   1.00
H2       0.93880    0.56144    0.87358   1.00
H2       1.05408    0.41210    0.91196   1.00
H2       0.89072    0.47490    0.88041   1.00
H2       0.98484    0.41791    0.92204   1.00
H2       0.98076    0.51673    0.88092   1.00
H2       0.89349    0.23957    0.94424   1.00
H2       1.00380    0.53859    0.82393   1.00
H2       0.95488    0.31269    0.95725   1.00
H2       1.00031    0.59809    0.84040   1.00
H2       0.89171    0.31652    0.94263   1.00
H2       1.04818    0.55922    0.84723   1.00
C4       0.02953    0.50538    0.31894   1.00
C4       -0.02672   0.47854    0.33271   1.00
C3       0.03911    0.46360    0.30469   1.00
C3       -0.08100   0.40965    0.33178   1.00
C3       0.07863    0.57661    0.31924   1.00
C3       -0.02970   0.52151    0.34809   1.00
C2       0.14141    0.56015    0.29042   1.00
C2       -0.13880   0.42326    0.36117   1.00
C3       0.09310    0.49007    0.29078   1.00
C3       -0.13520   0.38265    0.34561   1.00
C3       0.13267    0.60161    0.30475   1.00
C3       -0.08559   0.49193    0.36196   1.00
H1       0.00759    0.41224    0.30402   1.00
H1       -0.08354   0.37670    0.32088   1.00
C5       0.07329    0.62076    0.33381   1.00
C5       0.02196    0.59204    0.34926   1.00
H1       0.09701    0.45728    0.28084   1.00
H1       -0.17262   0.33249    0.34417   1.00
H1       0.16831    0.65202    0.30439   1.00
H1       -0.08924   0.52074    0.37318   1.00
C6       0.12130    0.69700    0.33255   1.00
C6       0.02209    0.63500    0.36688   1.00
H2       0.12604    0.71298    0.31676   1.00
H2       0.01201    0.60580    0.38086   1.00
H2       0.09936    0.72527    0.33944   1.00
H2       0.07277    0.67788    0.36976   1.00
C6       0.19268    0.72043    0.34239   1.00
C6       -0.02881   0.66226    0.36400   1.00
H2       0.21075    0.68581    0.33779   1.00
H2       -0.07741   0.62131    0.35823   1.00
C6       0.25112    0.79505    0.33807   1.00
C6       -0.04425   0.69410    0.38292   1.00
H2       0.18545    0.71396    0.35879   1.00
H2       -0.00873   0.70053    0.35196   1.00
C6       0.27225    0.80550    0.31540   1.00
C6       -0.08303   0.63996    0.39960   1.00
C6       0.23049    0.84817    0.34438   1.00
C6       0.02183    0.75353    0.39207   1.00
C6       0.31466    0.80886    0.35071   1.00
C6       -0.09055   0.72297    0.37615   1.00
H2       0.28606    0.76801    0.31038   1.00
H2       -0.12943   0.59675    0.39355   1.00
H2       0.23113    0.80068    0.30571   1.00
H2       -0.05172   0.62048    0.40596   1.00
H2       0.31609    0.85612    0.31281   1.00
H2       -0.09771   0.66154    0.41210   1.00
H2       0.27319    0.90004    0.34267   1.00
H2       0.01016    0.77849    0.40432   1.00
H2       0.18887    0.84373    0.33498   1.00
H2       0.05424    0.73515    0.39834   1.00
H2       0.21401    0.84101    0.36018   1.00
H2       0.05084    0.79170    0.38052   1.00
H2       0.33180    0.77308    0.34668   1.00
H2       -0.13837   0.68281    0.36976   1.00
H2       0.35712    0.86034    0.34810   1.00
H2       -0.10316   0.74542    0.38891   1.00
H2       0.30335    0.80363    0.36691   1.00
H2       -0.06539   0.76252    0.36465   1.00
C4       0.47664    0.97007    0.31910   1.00
C4       0.50595    1.02605    0.33296   1.00
C3       0.43258    0.96573    0.30302   1.00
C3       0.49911    1.08485    0.33046   1.00
C3       0.49131    0.91584    0.32118   1.00
C3       0.54381    1.02408    0.35005   1.00
C2       0.42001    0.85855    0.29044   1.00
C2       0.56235    1.13781    0.36153   1.00
C3       0.40534    0.91191    0.28905   1.00
C3       0.52610    1.13893    0.34434   1.00
C3       0.46286    0.86214    0.30657   1.00
C3       0.57016    1.08003    0.36390   1.00
H1       0.41808    1.00117    0.30098   1.00
H1       0.47483    1.09089    0.31835   1.00
C5       0.53301    0.91594    0.33756   1.00
C5       0.55486    0.96755    0.35291   1.00
H1       0.37412    0.91189    0.27775   1.00
H1       0.51917    1.17977    0.34172   1.00
H1       0.47250    0.82292    0.30746   1.00
H1       0.59696    1.08027    0.37630   1.00
C6       0.55403    0.86215    0.33833   1.00
C6       0.58867    0.96269    0.37216   1.00
H2       0.56932    0.85568    0.32319   1.00
H2       0.56730    0.97566    0.38508   1.00
H2       0.60099    0.87955    0.34683   1.00
H2       0.57443    0.91028    0.37560   1.00
C6       0.49762    0.79265    0.34742   1.00
C6       0.66840    1.00724    0.37158   1.00
H2       0.44803    0.77964    0.34102   1.00
H2       0.68323    1.05744    0.36529   1.00
C6       0.50723    0.72923    0.34484   1.00
C6       0.70776    1.01828    0.39203   1.00
H2       0.49358    0.80036    0.36360   1.00
H2       0.68706    0.98388    0.36073   1.00
C6       0.50253    0.70796    0.32227   1.00
C6       0.69236    1.06105    0.40726   1.00
C6       0.57613    0.74253    0.35375   1.00
C6       0.69062    0.94959    0.40201   1.00
C6       0.44914    0.66822    0.35649   1.00
C6       0.78548    1.05828    0.38754   1.00
H2       0.45489    0.69926    0.31544   1.00
H2       0.70288    1.10945    0.40055   1.00
H2       0.54448    0.74695    0.31340   1.00
H2       0.63923    1.03401    0.41206   1.00
H2       0.50454    0.66100    0.32076   1.00
H2       0.72356    1.07247    0.42089   1.00
H2       0.58019    0.69651    0.35319   1.00
H2       0.72190    0.95780    0.41547   1.00
H2       0.61886    0.78196    0.34518   1.00
H2       0.63740    0.92139    0.40675   1.00
H2       0.58136    0.75899    0.36952   1.00
H2       0.69966    0.91787    0.39145   1.00
H2       0.39924    0.65621    0.35063   1.00
H2       0.80045    1.10766    0.38065   1.00
H2       0.45339    0.62246    0.35503   1.00
H2       0.81523    1.06767    0.40141   1.00
H2       0.45059    0.67961    0.37263   1.00
H2       0.79981    1.03001    0.37716   1.00
C4       0.49348    0.52338    0.31909   1.00
C4       0.52016    0.49407    0.33295   1.00
C3       0.53330    0.56772    0.30308   1.00
C3       0.58594    0.50121    0.33050   1.00
C3       0.42447    0.50843    0.32111   1.00
C3       0.48019    0.45590    0.34999   1.00
C2       0.43860    0.58003    0.29044   1.00
C2       0.57552    0.43765    0.36152   1.00
C3       0.50672    0.59497    0.28911   1.00
C3       0.61302    0.47420    0.34438   1.00
C3       0.39924    0.53691    0.30650   1.00
C3       0.50979    0.42955    0.36383   1.00
H1       0.58331    0.58243    0.30108   1.00
H1       0.61637    0.52571    0.31843   1.00
C5       0.38276    0.46643    0.33743   1.00
C5       0.41248    0.44456    0.35279   1.00
H1       0.53800    0.62640    0.27786   1.00
H1       0.66089    0.48136    0.34180   1.00
H1       0.35031    0.52707    0.30735   1.00
H1       0.48314    0.40254    0.37619   1.00
C6       0.30787    0.44514    0.33813   1.00
C6       0.37363    0.41041    0.37198   1.00
H2       0.28632    0.42998    0.32297   1.00
H2       0.40779    0.43171    0.38494   1.00
H2       0.27833    0.39804    0.34657   1.00
H2       0.33527    0.42442    0.37541   1.00
C6       0.29441    0.50126    0.34725   1.00
C6       0.33872    0.33071    0.37131   1.00
H2       0.33093    0.55098    0.34092   1.00
H2       0.37431    0.31614    0.36504   1.00
C6       0.22130    0.49140    0.34461   1.00
C6       0.31025    0.29106    0.39171   1.00
H2       0.30596    0.50513    0.36345   1.00
H2       0.29682    0.31205    0.36042   1.00
C6       0.20495    0.49631    0.32203   1.00
C6       0.36829    0.30647    0.40700   1.00
C6       0.16576    0.42229    0.35343   1.00
C6       0.25839    0.30781    0.40167   1.00
C6       0.21798    0.54921    0.35630   1.00
C6       0.27283    0.21339    0.38714   1.00
H2       0.24387    0.54410    0.31527   1.00
H2       0.40637    0.29621    0.40030   1.00
H2       0.20227    0.45454    0.31313   1.00
H2       0.39415    0.35954    0.41185   1.00
H2       0.15591    0.49412    0.32049   1.00
H2       0.34843    0.27508    0.42059   1.00
H2       0.11560    0.41804    0.35283   1.00
H2       0.23524    0.27633    0.41509   1.00
H2       0.16273    0.37975    0.34483   1.00
H2       0.28319    0.36097    0.40646   1.00
H2       0.17684    0.41692    0.36920   1.00
H2       0.21772    0.29876    0.39107   1.00
H2       0.25582    0.59923    0.35051   1.00
H2       0.30746    0.19869    0.38026   1.00
H2       0.16790    0.54477    0.35480   1.00
H2       0.25238    0.18344    0.40097   1.00
H2       0.22774    0.54759    0.37245   1.00
H2       0.23033    0.19905    0.37672   1.00
C4       0.15958    0.30319    0.15252   1.00
C4       0.19000    0.36075    0.16580   1.00
C3       0.08922    0.25267    0.15365   1.00
C3       0.15092    0.37561    0.17967   1.00
C3       0.20035    0.29497    0.13745   1.00
C3       0.26217    0.40576    0.16538   1.00
C2       0.09728    0.18857    0.12502   1.00
C2       0.25180    0.47521    0.19336   1.00
C3       0.05883    0.19726    0.14028   1.00
C3       0.18078    0.43086    0.19311   1.00
C3       0.16736    0.23802    0.12405   1.00
C3       0.29063    0.46124    0.17940   1.00
H1       0.05755    0.25388    0.16437   1.00
H1       0.09921    0.34725    0.18038   1.00
C5       0.27207    0.34261    0.13613   1.00
C5       0.30385    0.39506    0.15116   1.00
H1       0.00777    0.16273    0.14183   1.00
H1       0.14981    0.43866    0.20280   1.00
H1       0.19454    0.23070    0.11306   1.00
H1       0.34179    0.49408    0.17966   1.00
C6       0.31307    0.33740    0.11879   1.00
C6       0.38073    0.43867    0.15235   1.00
H2       0.28429    0.32799    0.10475   1.00
H2       0.39643    0.44383    0.16817   1.00
H2       0.35829    0.38616    0.11560   1.00
H2       0.40588    0.41283    0.14589   1.00
C6       0.33484    0.28252    0.12243   1.00
C6       0.40909    0.50988    0.14183   1.00
H2       0.29165    0.23604    0.12850   1.00
H2       0.37755    0.53201    0.14601   1.00
C6       0.36391    0.26193    0.10389   1.00
C6       0.48530    0.56477    0.14594   1.00
H2       0.37312    0.30137    0.13447   1.00
H2       0.40226    0.50128    0.12548   1.00
C6       0.30889    0.22453    0.08733   1.00
C6       0.49711    0.58809    0.16842   1.00
C6       0.42621    0.32470    0.09437   1.00
C6       0.53429    0.53826    0.14021   1.00
C6       0.38761    0.21209    0.11138   1.00
C6       0.50381    0.62836    0.13267   1.00
H2       0.26372    0.18055    0.09365   1.00
H2       0.46248    0.60608    0.17304   1.00
H2       0.29289    0.25806    0.08050   1.00
H2       0.48908    0.54674    0.17855   1.00
H2       0.32823    0.20623    0.07514   1.00
H2       0.54917    0.62965    0.17082   1.00
H2       0.44905    0.30926    0.08241   1.00
H2       0.58744    0.57844    0.14175   1.00
H2       0.41137    0.35928    0.08761   1.00
H2       0.52658    0.49633    0.15006   1.00
H2       0.46515    0.35277    0.10581   1.00
H2       0.52603    0.52017    0.12456   1.00
H2       0.34524    0.16641    0.11807   1.00
H2       0.47108    0.64957    0.13627   1.00
H2       0.40796    0.19584    0.09892   1.00
H2       0.55656    0.66842    0.13511   1.00
H2       0.42754    0.23606    0.12283   1.00
H2       0.49781    0.61544    0.11657   1.00
C4       0.70458    0.87037    0.15520   1.00
C4       0.65043    0.84419    0.16970   1.00
C3       0.70464    0.90712    0.13764   1.00
C3       0.59628    0.85900    0.16880   1.00
C3       0.76120    0.85980    0.15811   1.00
C3       0.64962    0.80158    0.18583   1.00
C2       0.81565    0.92623    0.12639   1.00
C2       0.53912    0.78857    0.19842   1.00
C3       0.75857    0.93453    0.12371   1.00
C3       0.54209    0.83183    0.18265   1.00
C3       0.81527    0.88888    0.14362   1.00
C3       0.59332    0.77463    0.19955   1.00
H1       0.66519    0.91475    0.13422   1.00
H1       0.59453    0.89063    0.15818   1.00
C5       0.76266    0.82077    0.17503   1.00
C5       0.70420    0.78720    0.18801   1.00
H1       0.75567    0.96076    0.11140   1.00
H1       0.50446    0.84424    0.18113   1.00
H1       0.85660    0.88286    0.14524   1.00
H1       0.59069    0.74376    0.21113   1.00
C6       0.82604    0.81615    0.17911   1.00
C6       0.69908    0.73630    0.20381   1.00
H2       0.87084    0.86649    0.17723   1.00
H2       0.64782    0.69212    0.20349   1.00
H2       0.83000    0.80574    0.19499   1.00
H2       0.72989    0.71357    0.19979   1.00
C6       0.83053    0.76131    0.16573   1.00
C6       0.71935    0.76753    0.22564   1.00
H2       0.81680    0.76511    0.15008   1.00
H2       0.69616    0.79893    0.22869   1.00
C6       0.90018    0.76235    0.16530   1.00
C6       0.70174    0.71691    0.24381   1.00
H2       0.79113    0.71109    0.17096   1.00
H2       0.77431    0.80294    0.22571   1.00
C6       0.95697    0.82784    0.15501   1.00
C6       0.62359    0.67176    0.24682   1.00
C6       0.92359    0.75629    0.18690   1.00
C6       0.73333    0.67055    0.24097   1.00
C6       0.89105    0.70038    0.15270   1.00
C6       0.73173    0.75899    0.26352   1.00
H2       0.94154    0.83420    0.13984   1.00
H2       0.59959    0.70300    0.24854   1.00
H2       0.96901    0.87325    0.16378   1.00
H2       0.59968    0.63767    0.23400   1.00
H2       1.00398    0.82593    0.15352   1.00
H2       0.61187    0.64005    0.26035   1.00
H2       0.96956    0.75215    0.18632   1.00
H2       0.72491    0.63891    0.25436   1.00
H2       0.93526    0.80102    0.19600   1.00
H2       0.71051    0.63645    0.22807   1.00
H2       0.88391    0.71132    0.19465   1.00
H2       0.78816    0.70108    0.23840   1.00
H2       0.87519    0.70257    0.13721   1.00
H2       0.71048    0.79217    0.26636   1.00
H2       0.93857    0.69914    0.15185   1.00
H2       0.72033    0.72581    0.27670   1.00
H2       0.85250    0.65243    0.15945   1.00
H2       0.78705    0.79096    0.26250   1.00
C4       0.13037    0.83577    0.15550   1.00
C4       0.15710    0.80827    0.16997   1.00
C3       0.08253    0.79484    0.14032   1.00
C3       0.13260    0.73698    0.17165   1.00
C3       0.15182    0.90683    0.15597   1.00
C3       0.21030    0.85301    0.18343   1.00
C2       0.07375    0.89066    0.12684   1.00
C2       0.21339    0.75287    0.19857   1.00
C3       0.05475    0.82125    0.12647   1.00
C3       0.16003    0.71003    0.18542   1.00
C3       0.12202    0.93165    0.14168   1.00
C3       0.23710    0.82355    0.19717   1.00
H1       0.06658    0.74443    0.13862   1.00
H1       0.09344    0.70190    0.16306   1.00
C5       0.20199    0.95114    0.17036   1.00
C5       0.23508    0.92498    0.18305   1.00
H1       0.02026    0.78899    0.11595   1.00
H1       0.14030    0.65817    0.18583   1.00
H1       0.13563    0.98178    0.14163   1.00
H1       0.27528    0.85374    0.20688   1.00
C6       0.21880    1.02461    0.17211   1.00
C6       0.29620    0.97238    0.19583   1.00
H2       0.17159    1.02637    0.17176   1.00
H2       0.33476    0.95721    0.19457   1.00
H2       0.23858    1.04548    0.18704   1.00
H2       0.32292    1.02366    0.18959   1.00
C6       0.27056    1.07229    0.15562   1.00
C6       0.27757    0.97610    0.21852   1.00
H2       0.25636    1.04703    0.14084   1.00
H2       0.24237    0.92473    0.22407   1.00
C6       0.28004    1.14528    0.15307   1.00
C6       0.33768    1.01106    0.23406   1.00
H2       0.32020    1.07771    0.15910   1.00
H2       0.24872    1.00293    0.21891   1.00
C6       0.21435    1.14235    0.14493   1.00
C6       0.37481    0.96969    0.23687   1.00
C6       0.30119    1.18561    0.17327   1.00
C6       0.39010    1.08486    0.22759   1.00
C6       0.33761    1.18519    0.13735   1.00
C6       0.30801    1.01444    0.25498   1.00
H2       0.19744    1.11322    0.13083   1.00
H2       0.33897    0.91698    0.24112   1.00
H2       0.17275    1.11858    0.15582   1.00
H2       0.40052    0.96882    0.22301   1.00
H2       0.22289    1.19340    0.14187   1.00
H2       0.41346    0.99185    0.24874   1.00
H2       0.31240    1.23797    0.17102   1.00
H2       0.42911    1.11040    0.23922   1.00
H2       0.26042    1.16221    0.18446   1.00
H2       0.41595    1.08512    0.21362   1.00
H2       0.34654    1.18721    0.17955   1.00
H2       0.36502    1.11470    0.22509   1.00
H2       0.32487    1.15918    0.12271   1.00
H2       0.27111    0.96344    0.26036   1.00
H2       0.34585    1.23647    0.13495   1.00
H2       0.34809    1.03810    0.26641   1.00
H2       0.38577    1.19019    0.14244   1.00
H2       0.28228    1.04423    0.25408   1.00
C4       0.97056    0.49495    0.68109   1.00
C4       1.02793    0.52585    0.66775   1.00
C3       0.92971    0.42290    0.68335   1.00
C3       1.05272    0.48738    0.65738   1.00
C3       0.95255    0.53692    0.69272   1.00
C3       1.06251    0.59792    0.66449   1.00
C2       0.85658    0.43249    0.70881   1.00
C2       1.14184    0.58780    0.63999   1.00
C3       0.87465    0.39252    0.69685   1.00
C3       1.10770    0.51724    0.64384   1.00
C3       0.89634    0.50397    0.70638   1.00
C3       1.11806    0.62629    0.65050   1.00
H1       0.93802    0.38977    0.67512   1.00
H1       1.03217    0.43632    0.65942   1.00
C5       0.99000    0.60965    0.69047   1.00
C5       1.04170    0.63970    0.67515   1.00
H1       0.84738    0.34027    0.69783   1.00
H1       1.12294    0.48665    0.63677   1.00
H1       0.88227    0.53210    0.71501   1.00
H1       1.14363    0.67726    0.64768   1.00
C6       0.97504    0.65371    0.70441   1.00
C6       1.07396    0.71467    0.66996   1.00
H2       0.96945    0.63463    0.71987   1.00
H2       1.07763    0.72055    0.65353   1.00
H2       1.01877    0.70475    0.70587   1.00
H2       1.04056    0.73468    0.67371   1.00
C6       0.91160    0.65916    0.69761   1.00
C6       1.14476    0.75984    0.68048   1.00
H2       0.87016    0.60874    0.69325   1.00
H2       1.17523    0.73479    0.67929   1.00
C6       0.88222    0.69036    0.71307   1.00
C6       1.18958    0.83494    0.67282   1.00
H2       0.92539    0.68954    0.68372   1.00
H2       1.13558    0.76122    0.69669   1.00
C6       0.85127    0.64415    0.73198   1.00
C6       1.21420    0.83752    0.65071   1.00
C6       0.93730    0.76263    0.71998   1.00
C6       1.15084    0.87506    0.67417   1.00
C6       0.82414    0.69640    0.70253   1.00
C6       1.25386    0.87153    0.68649   1.00
H2       0.81295    0.59240    0.72759   1.00
H2       1.24081    0.80869    0.64917   1.00
H2       0.89022    0.64105    0.74083   1.00
H2       1.17172    0.81636    0.64007   1.00
H2       0.82676    0.66389    0.74198   1.00
H2       1.24918    0.88989    0.64600   1.00
H2       0.91522    0.78585    0.72960   1.00
H2       1.18406    0.92857    0.67018   1.00
H2       0.97717    0.76070    0.72871   1.00
H2       1.10766    0.85421    0.66376   1.00
H2       0.96092    0.79582    0.70692   1.00
H2       1.13171    0.87284    0.68950   1.00
H2       0.78346    0.64652    0.69754   1.00
H2       1.28352    0.84558    0.68592   1.00
H2       0.80163    0.71758    0.71280   1.00
H2       1.28709    0.92417    0.68165   1.00
H2       0.84312    0.72959    0.68927   1.00
H2       1.23985    0.87260    0.70227   1.00
C4       0.52356    0.02981    0.68095   1.00
C4       0.49671    -0.02768   0.66765   1.00
C3       0.49860    0.07642    0.68118   1.00
C3       0.43846    -0.04662   0.65521   1.00
C3       0.57752    0.04200    0.69462   1.00
C3       0.52861    -0.06843   0.66657   1.00
C2       0.57553    0.14418    0.70854   1.00
C2       0.44436    -0.14192   0.64001   1.00
C3       0.52346    0.13169    0.69461   1.00
C3       0.41319    -0.10176   0.64173   1.00
C3       0.60117    0.09865    0.70813   1.00
C3       0.50152    -0.12393   0.65256   1.00
H1       0.46187    0.07234    0.67147   1.00
H1       0.41180    -0.02146   0.65563   1.00
C5       0.60669    -0.00150   0.69450   1.00
C5       0.58566    -0.05360   0.67934   1.00
H1       0.50312    0.16328    0.69407   1.00
H1       0.37117    -0.11261   0.63311   1.00
H1       0.63915    0.10871    0.71817   1.00
H1       0.52310    -0.15380   0.65126   1.00
C6       0.65862    0.00762    0.71048   1.00
C6       0.62335    -0.09253   0.67650   1.00
H2       0.64145    0.01524    0.72519   1.00
H2       0.63058    -0.09684   0.66034   1.00
H2       0.65975    -0.03923   0.71302   1.00
H2       0.67571    -0.06347   0.68181   1.00
C6       0.73254    0.06640    0.70541   1.00
C6       0.58754    -0.16398   0.68717   1.00
H2       0.73057    0.11099    0.69998   1.00
H2       0.53269    -0.18967   0.68427   1.00
C6       0.78710    0.09053    0.72272   1.00
C6       0.61302    -0.21472   0.68160   1.00
H2       0.75107    0.04981    0.69255   1.00
H2       0.59292    -0.15534   0.70353   1.00
C6       0.77011    0.12508    0.74031   1.00
C6       0.59716    -0.23835   0.65919   1.00
C6       0.79422    0.03066    0.73126   1.00
C6       0.69052    -0.18300   0.68547   1.00
C6       0.85723    0.14416    0.71383   1.00
C6       0.57499    -0.27903   0.69520   1.00
H2       0.76365    0.16690    0.73472   1.00
H2       0.54295    -0.26000   0.65588   1.00
H2       0.72336    0.08902    0.74808   1.00
H2       0.62565    -0.19622   0.64874   1.00
H2       0.81076    0.14590    0.75161   1.00
H2       0.61080    -0.27723   0.65585   1.00
H2       0.83569    0.04880    0.74227   1.00
H2       0.70682    -0.22035   0.68294   1.00
H2       0.74763    -0.00640   0.73894   1.00
H2       0.71996    -0.14024   0.67528   1.00
H2       0.80478    0.00454    0.71911   1.00
H2       0.70328    -0.16463   0.70104   1.00
H2       0.85518    0.18798    0.70777   1.00
H2       0.51994    -0.30386   0.69289   1.00
H2       0.89703    0.16295    0.72540   1.00
H2       0.59076    -0.31630   0.69177   1.00
H2       0.87272    0.12239    0.70158   1.00
H2       0.58529    -0.26585   0.71123   1.00
C4       0.50619    0.47641    0.68096   1.00
C4       0.47555    0.50325    0.66765   1.00
C3       0.57781    0.50162    0.68126   1.00
C3       0.51485    0.56170    0.65529   1.00
C3       0.46439    0.42221    0.69456   1.00
C3       0.40290    0.47113    0.66650   1.00
C2       0.56860    0.42446    0.70855   1.00
C2       0.41365    0.55559    0.64001   1.00
C3       0.60821    0.47676    0.69469   1.00
C3       0.48498    0.58696    0.64180   1.00
C3       0.49740    0.39858    0.70807   1.00
C3       0.37448    0.49822    0.65249   1.00
H1       0.61049    0.53853    0.67160   1.00
H1       0.56666    0.58852    0.65576   1.00
C5       0.39170    0.39281    0.69436   1.00
C5       0.36066    0.41386    0.67919   1.00
H1       0.66018    0.49728    0.69421   1.00
H1       0.51615    0.62914    0.63324   1.00
H1       0.46945    0.36044    0.71806   1.00
H1       0.32304    0.47649    0.65113   1.00
C6       0.34882    0.34060    0.71027   1.00
C6       0.28408    0.37596    0.67627   1.00
H2       0.37340    0.35765    0.72501   1.00
H2       0.27275    0.36891    0.66010   1.00
H2       0.30071    0.33924    0.71277   1.00
H2       0.26088    0.32354    0.68153   1.00
C6       0.33402    0.26684    0.70513   1.00
C6       0.24809    0.41141    0.68694   1.00
H2       0.38073    0.26907    0.69973   1.00
H2       0.27711    0.46630    0.68410   1.00
C6       0.30354    0.21205    0.72237   1.00
C6       0.17187    0.38573    0.68130   1.00
H2       0.29906    0.24836    0.69223   1.00
H2       0.25117    0.40584    0.70330   1.00
C6       0.35489    0.22899    0.74002   1.00
C6       0.16430    0.40182    0.65889   1.00
C6       0.23633    0.20455    0.73086   1.00
C6       0.12628    0.30816    0.68507   1.00
C6       0.28742    0.14211    0.71342   1.00
C6       0.14521    0.42340    0.69490   1.00
H2       0.40333    0.23571    0.73447   1.00
H2       0.19674    0.45609    0.65565   1.00
H2       0.36532    0.27559    0.74783   1.00
H2       0.17823    0.37358    0.64843   1.00
H2       0.33506    0.18820    0.75127   1.00
H2       0.11178    0.38803    0.65551   1.00
H2       0.21299    0.16293    0.74182   1.00
H2       0.07262    0.29170    0.68249   1.00
H2       0.24560    0.25098    0.73858   1.00
H2       0.13988    0.27897    0.67487   1.00
H2       0.19977    0.19402    0.71868   1.00
H2       0.13176    0.29525    0.70064   1.00
H2       0.33344    0.14442    0.70739   1.00
H2       0.17530    0.47849    0.69266   1.00
H2       0.26638    0.10216    0.72495   1.00
H2       0.09217    0.40748    0.69143   1.00
H2       0.25029    0.12665    0.70113   1.00
H2       0.14795    0.41293    0.71093   1.00
C4       0.50916    0.03958    0.17749   1.00
C4       0.47943    -0.01493   0.16313   1.00
C3       0.57279    0.05968    0.18712   1.00
C3       0.51440    -0.04832   0.15581   1.00
C3       0.47462    0.07587    0.18262   1.00
C3       0.41222    -0.03751   0.15561   1.00
C2       0.57097    0.15196    0.20578   1.00
C2       0.41807    -0.12737   0.13485   1.00
C3       0.60302    0.11435    0.20076   1.00
C3       0.48465    -0.10305   0.14218   1.00
C3       0.50731    0.13148    0.19649   1.00
C3       0.38361    -0.09367   0.14183   1.00
H1       0.59924    0.03491    0.18473   1.00
H1       0.56307    -0.03367   0.15996   1.00
C5       0.40908    0.05615    0.17407   1.00
C5       0.37559    -0.00403   0.16176   1.00
H1       0.64912    0.12647    0.20712   1.00
H1       0.51246    -0.12513   0.13755   1.00
H1       0.48456    0.15881    0.20041   1.00
H1       0.33578    -0.11149   0.13626   1.00
C6       0.37651    0.09944    0.17794   1.00
C6       0.30195    -0.03301   0.15540   1.00
H2       0.41508    0.15305    0.17633   1.00
H2       0.27516    -0.08821   0.15728   1.00
H2       0.34076    0.09338    0.16601   1.00
H2       0.27431    -0.01841   0.16584   1.00
C6       0.33932    0.08465    0.19894   1.00
C6       0.29398    -0.01213   0.13334   1.00
H2       0.37136    0.08082    0.21067   1.00
H2       0.32927    -0.01738   0.12319   1.00
C6       0.31709    0.13615    0.20654   1.00
C6       0.22136    -0.05085   0.12351   1.00
H2       0.29399    0.03403    0.19815   1.00
H2       0.31097    0.04231    0.13347   1.00
C6       0.37956    0.20716    0.21121   1.00
C6       0.19782    -0.12711   0.11975   1.00
C6       0.27051    0.14436    0.19095   1.00
C6       0.16766    -0.04556   0.13675   1.00
C6       0.27618    0.10829    0.22655   1.00
C6       0.22424    -0.01787   0.10261   1.00
H2       0.41406    0.20297    0.22194   1.00
H2       0.23522    -0.13261   0.11072   1.00
H2       0.40839    0.23162    0.19753   1.00
H2       0.19063    -0.15449   0.13395   1.00
H2       0.36370    0.24122    0.21782   1.00
H2       0.14934    -0.15251   0.11164   1.00
H2       0.25137    0.17650    0.19700   1.00
H2       0.11834    -0.06847   0.12910   1.00
H2       0.29829    0.16819    0.17705   1.00
H2       0.16021    -0.07213   0.15113   1.00
H2       0.22683    0.09491    0.18708   1.00
H2       0.18370    0.00762    0.13998   1.00
H2       0.30708    0.10221    0.23817   1.00
H2       0.26100    -0.02090   0.09258   1.00
H2       0.25987    0.14281    0.23254   1.00
H2       0.17468    -0.04352   0.09508   1.00
H2       0.23059    0.05875    0.22414   1.00
H2       0.23926    0.03579    0.10430   1.00
C4       0.96952    0.47730    0.18070   1.00
C4       1.02521    0.50645    0.16673   1.00
C3       0.97014    0.44188    0.19849   1.00
C3       1.08810    0.50850    0.17063   1.00
C3       0.91049    0.48323    0.17696   1.00
C3       1.01870    0.53497    0.14809   1.00
C2       0.85835    0.42124    0.20947   1.00
C2       1.13667    0.56236    0.13805   1.00
C3       0.91647    0.41496    0.21251   1.00
C3       1.14207    0.53526    0.15671   1.00
C3       0.85709    0.45543    0.19168   1.00
C3       1.07473    0.56139    0.13427   1.00
H1       1.00932    0.43372    0.20182   1.00
H1       1.09730    0.49123    0.18382   1.00
C5       0.90568    0.51582    0.15889   1.00
C5       0.95770    0.53697    0.14369   1.00
H1       0.92014    0.39021    0.22508   1.00
H1       1.18600    0.53499    0.16039   1.00
H1       0.81450    0.45904    0.18962   1.00
H1       1.07186    0.58167    0.12080   1.00
C6       0.84631    0.52815    0.15619   1.00
C6       0.94867    0.56059    0.12303   1.00
H2       0.83739    0.54698    0.17041   1.00
H2       0.96517    0.53777    0.11140   1.00
H2       0.85901    0.57067    0.14603   1.00
H2       0.89513    0.53952    0.11924   1.00
C6       0.78000    0.46385    0.14832   1.00
C6       0.98589    0.64017    0.12097   1.00
H2       0.77228    0.41868    0.15658   1.00
H2       1.03698    0.66255    0.12751   1.00
C6       0.71182    0.46563    0.14924   1.00
C6       0.99298    0.67050    0.09918   1.00
H2       0.78887    0.45520    0.13258   1.00
H2       0.95877    0.65842    0.13046   1.00
C6       0.68962    0.46682    0.17143   1.00
C6       1.04024    0.65614    0.08555   1.00
C6       0.71750    0.52777    0.13765   1.00
C6       0.92270    0.64230    0.08871   1.00
C6       0.65472    0.39993    0.13907   1.00
C6       1.02558    0.74908    0.10098   1.00
H2       0.68622    0.42415    0.18012   1.00
H2       1.08996    0.67446    0.09267   1.00
H2       0.72551    0.51379    0.17914   1.00
H2       1.01830    0.60184    0.08260   1.00
H2       0.63978    0.46326    0.17195   1.00
H2       1.04865    0.68147    0.07088   1.00
H2       0.66841    0.52589    0.13715   1.00
H2       0.92771    0.66736    0.07415   1.00
H2       0.75375    0.57540    0.14503   1.00
H2       0.89955    0.58779    0.08581   1.00
H2       0.73446    0.52894    0.12209   1.00
H2       0.88795    0.65049    0.09819   1.00
H2       0.64810    0.35441    0.14683   1.00
H2       1.07578    0.77169    0.10810   1.00
H2       0.60586    0.39858    0.13946   1.00
H2       1.03202    0.77271    0.08610   1.00
H2       0.66679    0.39683    0.12322   1.00
H2       0.99382    0.76252    0.11011   1.00
C4       0.52340    0.49350    0.18091   1.00
C4       0.49408    0.52018    0.16705   1.00
C3       0.56788    0.53337    0.19689   1.00
C3       0.50136    0.58603    0.16947   1.00
C3       0.50830    0.42444    0.17893   1.00
C3       0.45576    0.48014    0.15005   1.00
C2       0.58005    0.43862    0.20956   1.00
C2       0.43766    0.57554    0.13849   1.00
C3       0.59513    0.50679    0.21086   1.00
C3       0.47436    0.61311    0.15560   1.00
C3       0.53679    0.39921    0.19353   1.00
C3       0.42941    0.50974    0.13621   1.00
H1       0.58269    0.58342    0.19886   1.00
H1       0.52599    0.61652    0.18152   1.00
C5       0.46615    0.38267    0.16263   1.00
C5       0.44427    0.41237    0.14727   1.00
H1       0.62667    0.53811    0.22209   1.00
H1       0.48162    0.66104    0.15816   1.00
H1       0.52685    0.35024    0.19270   1.00
H1       0.40229    0.48304    0.12386   1.00
C6       0.44471    0.30774    0.16198   1.00
C6       0.40995    0.37343    0.12811   1.00
H2       0.42963    0.28630    0.17715   1.00
H2       0.43121    0.40749    0.11513   1.00
H2       0.39755    0.27822    0.15356   1.00
H2       0.42383    0.33498    0.12469   1.00
C6       0.50069    0.29408    0.15283   1.00
C6       0.33026    0.33866    0.12882   1.00
H2       0.55048    0.33058    0.15914   1.00
H2       0.31582    0.37435    0.13509   1.00
C6       0.49070    0.22093    0.15550   1.00
C6       0.29045    0.31011    0.10845   1.00
H2       0.50447    0.30554    0.13663   1.00
H2       0.31160    0.29682    0.13974   1.00
C6       0.49571    0.20470    0.17809   1.00
C6       0.30588    0.36808    0.09313   1.00
C6       0.42149    0.16543    0.14674   1.00
C6       0.30702    0.25810    0.09850   1.00
C6       0.54836    0.21742    0.14379   1.00
C6       0.21282    0.27285    0.11307   1.00
H2       0.54358    0.24360    0.18482   1.00
H2       0.29575    0.40627    0.09982   1.00
H2       0.45405    0.20217    0.18701   1.00
H2       0.35891    0.39382    0.08825   1.00
H2       0.49343    0.15563    0.17965   1.00
H2       0.27439    0.34818    0.07956   1.00
H2       0.41714    0.11523    0.14735   1.00
H2       0.27543    0.23490    0.08511   1.00
H2       0.37904    0.16254    0.15535   1.00
H2       0.36014    0.28278    0.09368   1.00
H2       0.41605    0.17643    0.13096   1.00
H2       0.29795    0.21747    0.10912   1.00
H2       0.59845    0.25522    0.14955   1.00
H2       0.19826    0.30759    0.11994   1.00
H2       0.54384    0.16731    0.14531   1.00
H2       0.18277    0.25235    0.09925   1.00
H2       0.54666    0.22709    0.12764   1.00
H2       0.19847    0.23040    0.12351   1.00
C4       0.70632    0.84208    0.65588   1.00
C4       0.65174    0.81218    0.67021   1.00
C3       0.72905    0.90759    0.64719   1.00
C3       0.62094    0.84848    0.67845   1.00
C3       0.73999    0.80575    0.64981   1.00
C3       0.62642    0.74345    0.67675   1.00
C2       0.81888    0.90402    0.62765   1.00
C2       0.53915    0.75071    0.69844   1.00
C3       0.78381    0.93787    0.63359   1.00
C3       0.56614    0.81869    0.69205   1.00
C3       0.79578    0.83855    0.63600   1.00
C3       0.57029    0.71487    0.69054   1.00
H1       0.70623    0.93548    0.65027   1.00
H1       0.63761    0.89815    0.67503   1.00
C5       0.71754    0.73843    0.65738   1.00
C5       0.65724    0.70528    0.66965   1.00
H1       0.79790    0.98536    0.62792   1.00
H1       0.54599    0.84751    0.69738   1.00
H1       0.82129    0.81454    0.63143   1.00
H1       0.55057    0.66600    0.69543   1.00
C6       0.75811    0.70360    0.65254   1.00
C6       0.62537    0.63045    0.67498   1.00
H2       0.81225    0.74019    0.65431   1.00
H2       0.57026    0.60603    0.67315   1.00
H2       0.75044    0.66556    0.66388   1.00
H2       0.63823    0.60304    0.66393   1.00
C6       0.74186    0.66942    0.63105   1.00
C6       0.64532    0.61801    0.69668   1.00
H2       0.73972    0.70412    0.61993   1.00
H2       0.64195    0.65282    0.70749   1.00
C6       0.79095    0.64533    0.62258   1.00
C6       0.60401    0.54417    0.70558   1.00
H2       0.69030    0.62542    0.63152   1.00
H2       0.69920    0.63274    0.69634   1.00
C6       0.86322    0.70643    0.61834   1.00
C6       0.52854    0.52325    0.70964   1.00
C6       0.79666    0.59497    0.63725   1.00
C6       0.60652    0.49098    0.69137   1.00
C6       0.76179    0.60783    0.60215   1.00
C6       0.63629    0.54240    0.72619   1.00
H2       0.86085    0.74351    0.60828   1.00
H2       0.52503    0.56041    0.71937   1.00
H2       0.88849    0.73269    0.63228   1.00
H2       0.50151    0.51934    0.69560   1.00
H2       0.89564    0.68955    0.61114   1.00
H2       0.50140    0.47371    0.71714   1.00
H2       0.82703    0.57475    0.63058   1.00
H2       0.58175    0.44053    0.69836   1.00
H2       0.82124    0.62015    0.65140   1.00
H2       0.58026    0.48680    0.67713   1.00
H2       0.74631    0.55215    0.64082   1.00
H2       0.65913    0.50528    0.68793   1.00
H2       0.75738    0.64145    0.59114   1.00
H2       0.63515    0.57863    0.73689   1.00
H2       0.79462    0.59037    0.59555   1.00
H2       0.60885    0.49185    0.73310   1.00
H2       0.71127    0.56326    0.60421   1.00
H2       0.68931    0.55539    0.72427   1.00
C4       0.13000    0.29495    0.65537   1.00
C4       0.15467    0.35101    0.66917   1.00
C3       0.13844    0.23752    0.65890   1.00
C3       0.18303    0.35037    0.68841   1.00
C3       0.09552    0.29552    0.63726   1.00
C3       0.15118    0.41036    0.66379   1.00
C2       0.07718    0.18002    0.62798   1.00
C2       0.20766    0.46567    0.69666   1.00
C3       0.11259    0.18161    0.64569   1.00
C3       0.20905    0.40601    0.70172   1.00
C3       0.06963    0.23740    0.62427   1.00
C3       0.17859    0.46608    0.67772   1.00
H1       0.16429    0.23447    0.67109   1.00
H1       0.18521    0.30919    0.69356   1.00
C5       0.08798    0.35318    0.63247   1.00
C5       0.12059    0.41287    0.64500   1.00
H1       0.12014    0.14164    0.64914   1.00
H1       0.22909    0.40246    0.71533   1.00
H1       0.04443    0.23571    0.61132   1.00
H1       0.17745    0.50933    0.67438   1.00
C6       0.04516    0.35003    0.61441   1.00
C6       0.12377    0.47857    0.63853   1.00
H2       -0.00153   0.30059    0.61423   1.00
H2       0.17485    0.52107    0.64143   1.00
H2       0.02524    0.38457    0.61615   1.00
H2       0.12003    0.48136    0.62216   1.00
C6       0.08439    0.36536    0.59375   1.00
C6       0.06769    0.48983    0.64877   1.00
H2       0.11285    0.33812    0.59316   1.00
H2       0.06435    0.47742    0.66491   1.00
C6       0.04148    0.34886    0.57379   1.00
C6       0.07520    0.56218    0.64683   1.00
H2       0.12306    0.41942    0.59359   1.00
H2       0.01844    0.45246    0.64239   1.00
C6       -0.00750   0.27111    0.57120   1.00
C6       0.13871    0.61702    0.65841   1.00
C6       -0.00022   0.38608    0.57311   1.00
C6       0.07947    0.58402    0.62437   1.00
C6       0.09111    0.37366    0.55544   1.00
C6       0.01138    0.55979    0.65641   1.00
H2       0.02026    0.24323    0.57195   1.00
H2       0.13778    0.60255    0.67426   1.00
H2       -0.04653   0.25098    0.58295   1.00
H2       0.18582    0.62440    0.65166   1.00
H2       -0.03367   0.25976    0.55661   1.00
H2       0.14087    0.66625    0.65815   1.00
H2       -0.02606   0.37818    0.55855   1.00
H2       0.07977    0.63224    0.62313   1.00
H2       -0.03919   0.36710    0.58490   1.00
H2       0.12603    0.59103    0.61727   1.00
H2       0.03290    0.44081    0.57533   1.00
H2       0.03605    0.54557    0.61577   1.00
H2       0.12137    0.34832    0.55509   1.00
H2       0.00637    0.54528    0.67238   1.00
H2       0.06345    0.36283    0.54110   1.00
H2       0.01446    0.60940    0.65554   1.00
H2       0.12619    0.42855    0.55618   1.00
H2       -0.03511   0.52290    0.64861   1.00
C4       0.16455    0.86980    0.65544   1.00
C4       0.19590    0.84518    0.66927   1.00
C3       0.09733    0.85843    0.65843   1.00
C3       0.16519    0.81384    0.68808   1.00
C3       0.20103    0.90724    0.63786   1.00
C3       0.26047    0.85183    0.66438   1.00
C2       0.10236    0.92243    0.62801   1.00
C2       0.25764    0.79236    0.69680   1.00
C3       0.06720    0.88418    0.64521   1.00
C3       0.19485    0.78790    0.70140   1.00
C3       0.16867    0.93290    0.62483   1.00
C3       0.28878    0.82439    0.67831   1.00
H1       0.06747    0.83044    0.67021   1.00
H1       0.12045    0.80930    0.69289   1.00
C5       0.26776    0.91785    0.63359   1.00
C5       0.29521    0.88546    0.64607   1.00
H1       0.01866    0.87443    0.64825   1.00
H1       0.16999    0.76563    0.71469   1.00
H1       0.19316    0.96015    0.61225   1.00
H1       0.33438    0.82772    0.67529   1.00
C6       0.30860    0.96363    0.61616   1.00
C6       0.35984    0.88569    0.64004   1.00
H2       0.30390    1.00922    0.61630   1.00
H2       0.35285    0.83499    0.64250   1.00
H2       0.36309    0.98510    0.61843   1.00
H2       0.36831    0.89167    0.62376   1.00
C6       0.28836    0.92689    0.59505   1.00
C6       0.42494    0.94199    0.65117   1.00
H2       0.23282    0.89686    0.59385   1.00
H2       0.41360    0.94286    0.66725   1.00
C6       0.31591    0.97245    0.57562   1.00
C6       0.49159    0.93751    0.64964   1.00
H2       0.30566    0.88968    0.59472   1.00
H2       0.43579    0.99147    0.64523   1.00
C6       0.28487    1.01954    0.57318   1.00
C6       0.48397    0.87356    0.66068   1.00
C6       0.39472    1.01653    0.57581   1.00
C6       0.51237    0.93687    0.62729   1.00
C6       0.29487    0.92521    0.55674   1.00
C6       0.55041    1.00123    0.66012   1.00
H2       0.22921    0.99004    0.57332   1.00
H2       0.46823    0.87192    0.67643   1.00
H2       0.30111    1.05702    0.58533   1.00
H2       0.44623    0.82671    0.65331   1.00
H2       0.30066    1.04759    0.55890   1.00
H2       0.53207    0.87337    0.66075   1.00
H2       0.41370    1.04438    0.56158   1.00
H2       0.56138    0.93867    0.62640   1.00
H2       0.41207    1.05398    0.58802   1.00
H2       0.47483    0.89061    0.61958   1.00
H2       0.41785    0.98472    0.57794   1.00
H2       0.51668    0.98065    0.61906   1.00
H2       0.23948    0.89339    0.55576   1.00
H2       0.53859    1.00374    0.67605   1.00
H2       0.31260    0.95476    0.54274   1.00
H2       0.59808    1.00021    0.65957   1.00
H2       0.31642    0.89159    0.55737   1.00
H2       0.55921    1.04809    0.65274   1.00
