data_IRMOF10_interpen_symm_ligand4cp_label_a_1.

_audit_creation_method             'generated by an auxiliary program of Tobunporous'

_symmetry_space_group_name_H-M     'P 1'
_symmetry_Int_Tables_number        1
_symmetry_cell_setting             triclinic

_cell_length_a                    22.6523
_cell_length_b                    22.6523
_cell_length_c                    65.9502
_cell_angle_alpha                 90.0000
_cell_angle_beta                  90.0000
_cell_angle_gamma                 120.0000

loop_
_atom_site_label
_atom_site_fract_x
_atom_site_fract_y
_atom_site_fract_z
_atom_site_occupancy
O1       0.00000    0.00000    0.57470   1.00
Zn1      0.00000    0.00000    0.54560   1.00
Zn1      0.94843    0.04287    0.58357   1.00
Zn1      0.09443    0.05157    0.58357   1.00
Zn1      0.95713    0.90557    0.58357   1.00
O2       0.93860    0.02610    0.53560   1.00
O2       0.08750    0.06140    0.53560   1.00
O2       0.97390    0.91250    0.53560   1.00
O2       0.91300    0.07160    0.56150   1.00
O2       0.00463    0.12027    0.60077   1.00
O2       0.87413    0.98077    0.60037   1.00
O2       0.15860    0.08700    0.56150   1.00
O2       0.10663    0.12587    0.60037   1.00
O2       0.11563    0.99537    0.60077   1.00
O2       0.92840    0.84140    0.56150   1.00
O2       0.87973    0.88437    0.60077   1.00
O2       0.01923    0.89337    0.60037   1.00
C1       0.91390    0.06020    0.54330   1.00
C1       0.14630    0.08610    0.54330   1.00
C1       0.93980    0.85370    0.54330   1.00
C1       0.06663    0.14397    0.60637   1.00
C1       0.85603    0.92267    0.60637   1.00
C1       0.07733    0.93337    0.60637   1.00
O1       0.00000    0.00000    0.92530   1.00
Zn1      0.00000    0.00000    0.95440   1.00
Zn1      0.04287    0.94843    0.91643   1.00
Zn1      0.05157    0.09443    0.91643   1.00
Zn1      0.90557    0.95713    0.91643   1.00
O2       0.02610    0.93860    0.96440   1.00
O2       0.06140    0.08750    0.96440   1.00
O2       0.91250    0.97390    0.96440   1.00
O2       0.07160    0.91300    0.93850   1.00
O2       0.12027    0.00463    0.89923   1.00
O2       0.98077    0.87413    0.89963   1.00
O2       0.08700    0.15860    0.93850   1.00
O2       0.12587    0.10663    0.89963   1.00
O2       0.99537    0.11563    0.89923   1.00
O2       0.84140    0.92840    0.93850   1.00
O2       0.88437    0.87973    0.89923   1.00
O2       0.89337    0.01923    0.89963   1.00
C1       0.06020    0.91390    0.95670   1.00
C1       0.08610    0.14630    0.95670   1.00
C1       0.85370    0.93980    0.95670   1.00
C1       0.14397    0.06663    0.89363   1.00
C1       0.92267    0.85603    0.89363   1.00
C1       0.93337    0.07733    0.89363   1.00
O1       0.00000    0.00000    0.42530   1.00
Zn1      0.00000    0.00000    0.45440   1.00
Zn1      0.05157    0.95713    0.41643   1.00
Zn1      0.90557    0.94843    0.41643   1.00
Zn1      0.04287    0.09443    0.41643   1.00
O2       0.06140    0.97390    0.46440   1.00
O2       0.91250    0.93860    0.46440   1.00
O2       0.02610    0.08750    0.46440   1.00
O2       0.08700    0.92840    0.43850   1.00
O2       0.99537    0.87973    0.39923   1.00
O2       0.12587    0.01923    0.39963   1.00
O2       0.84140    0.91300    0.43850   1.00
O2       0.89337    0.87413    0.39963   1.00
O2       0.88437    0.00463    0.39923   1.00
O2       0.07160    0.15860    0.43850   1.00
O2       0.12027    0.11563    0.39923   1.00
O2       0.98077    0.10663    0.39963   1.00
C1       0.08610    0.93980    0.45670   1.00
C1       0.85370    0.91390    0.45670   1.00
C1       0.06020    0.14630    0.45670   1.00
C1       0.93337    0.85603    0.39363   1.00
C1       0.14397    0.07733    0.39363   1.00
C1       0.92267    0.06663    0.39363   1.00
O1       0.00000    0.00000    0.07470   1.00
Zn1      0.00000    0.00000    0.04560   1.00
Zn1      0.95713    0.05157    0.08357   1.00
Zn1      0.94843    0.90557    0.08357   1.00
Zn1      0.09443    0.04287    0.08357   1.00
O2       0.97390    0.06140    0.03560   1.00
O2       0.93860    0.91250    0.03560   1.00
O2       0.08750    0.02610    0.03560   1.00
O2       0.92840    0.08700    0.06150   1.00
O2       0.87973    0.99537    0.10077   1.00
O2       0.01923    0.12587    0.10037   1.00
O2       0.91300    0.84140    0.06150   1.00
O2       0.87413    0.89337    0.10037   1.00
O2       0.00463    0.88437    0.10077   1.00
O2       0.15860    0.07160    0.06150   1.00
O2       0.11563    0.12027    0.10077   1.00
O2       0.10663    0.98077    0.10037   1.00
C1       0.93980    0.08610    0.04330   1.00
C1       0.91390    0.85370    0.04330   1.00
C1       0.14630    0.06020    0.04330   1.00
C1       0.85603    0.93337    0.10637   1.00
C1       0.07733    0.14397    0.10637   1.00
C1       0.06663    0.92267    0.10637   1.00
O1       0.66667    0.33333    0.90803   1.00
Zn1      0.66667    0.33333    0.87893   1.00
Zn1      0.61510    0.37620    0.91690   1.00
Zn1      0.76110    0.38490    0.91690   1.00
Zn1      0.62380    0.23890    0.91690   1.00
O2       0.60527    0.35943    0.86893   1.00
O2       0.75417    0.39473    0.86893   1.00
O2       0.64057    0.24583    0.86893   1.00
O2       0.57967    0.40493    0.89483   1.00
O2       0.67130    0.45360    0.93410   1.00
O2       0.54080    0.31410    0.93370   1.00
O2       0.82527    0.42033    0.89483   1.00
O2       0.77330    0.45920    0.93370   1.00
O2       0.78230    0.32870    0.93410   1.00
O2       0.59507    0.17473    0.89483   1.00
O2       0.54640    0.21770    0.93410   1.00
O2       0.68590    0.22670    0.93370   1.00
C1       0.58057    0.39353    0.87663   1.00
C1       0.81297    0.41943    0.87663   1.00
C1       0.60647    0.18703    0.87663   1.00
C1       0.73330    0.47730    0.93970   1.00
C1       0.52270    0.25600    0.93970   1.00
C1       0.74400    0.26670    0.93970   1.00
O1       0.66667    0.33333    0.25863   1.00
Zn1      0.66667    0.33333    0.28773   1.00
Zn1      0.70953    0.28177    0.24977   1.00
Zn1      0.71823    0.42777    0.24977   1.00
Zn1      0.57223    0.29047    0.24977   1.00
O2       0.69277    0.27193    0.29773   1.00
O2       0.72807    0.42083    0.29773   1.00
O2       0.57917    0.30723    0.29773   1.00
O2       0.73827    0.24633    0.27183   1.00
O2       0.78693    0.33797    0.23257   1.00
O2       0.64743    0.20747    0.23297   1.00
O2       0.75367    0.49193    0.27183   1.00
O2       0.79253    0.43997    0.23297   1.00
O2       0.66203    0.44897    0.23257   1.00
O2       0.50807    0.26173    0.27183   1.00
O2       0.55103    0.21307    0.23257   1.00
O2       0.56003    0.35257    0.23297   1.00
C1       0.72687    0.24723    0.29003   1.00
C1       0.75277    0.47963    0.29003   1.00
C1       0.52037    0.27313    0.29003   1.00
C1       0.81063    0.39997    0.22697   1.00
C1       0.58933    0.18937    0.22697   1.00
C1       0.60003    0.41067    0.22697   1.00
O1       0.66667    0.33333    0.75863   1.00
Zn1      0.66667    0.33333    0.78773   1.00
Zn1      0.71823    0.29047    0.74977   1.00
Zn1      0.57223    0.28177    0.74977   1.00
Zn1      0.70953    0.42777    0.74977   1.00
O2       0.72807    0.30723    0.79773   1.00
O2       0.57917    0.27193    0.79773   1.00
O2       0.69277    0.42083    0.79773   1.00
O2       0.75367    0.26173    0.77183   1.00
O2       0.66203    0.21307    0.73257   1.00
O2       0.79253    0.35257    0.73297   1.00
O2       0.50807    0.24633    0.77183   1.00
O2       0.56003    0.20747    0.73297   1.00
O2       0.55103    0.33797    0.73257   1.00
O2       0.73827    0.49193    0.77183   1.00
O2       0.78693    0.44897    0.73257   1.00
O2       0.64743    0.43997    0.73297   1.00
C1       0.75277    0.27313    0.79003   1.00
C1       0.52037    0.24723    0.79003   1.00
C1       0.72687    0.47963    0.79003   1.00
C1       0.60003    0.18937    0.72697   1.00
C1       0.81063    0.41067    0.72697   1.00
C1       0.58933    0.39997    0.72697   1.00
O1       0.66667    0.33333    0.40803   1.00
Zn1      0.66667    0.33333    0.37893   1.00
Zn1      0.62380    0.38490    0.41690   1.00
Zn1      0.61510    0.23890    0.41690   1.00
Zn1      0.76110    0.37620    0.41690   1.00
O2       0.64057    0.39473    0.36893   1.00
O2       0.60527    0.24583    0.36893   1.00
O2       0.75417    0.35943    0.36893   1.00
O2       0.59507    0.42033    0.39483   1.00
O2       0.54640    0.32870    0.43410   1.00
O2       0.68590    0.45920    0.43370   1.00
O2       0.57967    0.17473    0.39483   1.00
O2       0.54080    0.22670    0.43370   1.00
O2       0.67130    0.21770    0.43410   1.00
O2       0.82527    0.40493    0.39483   1.00
O2       0.78230    0.45360    0.43410   1.00
O2       0.77330    0.31410    0.43370   1.00
C1       0.60647    0.41943    0.37663   1.00
C1       0.58057    0.18703    0.37663   1.00
C1       0.81297    0.39353    0.37663   1.00
C1       0.52270    0.26670    0.43970   1.00
C1       0.74400    0.47730    0.43970   1.00
C1       0.73330    0.25600    0.43970   1.00
O1       0.33333    0.66667    0.24137   1.00
Zn1      0.33333    0.66667    0.21227   1.00
Zn1      0.28177    0.70953    0.25023   1.00
Zn1      0.42777    0.71823    0.25023   1.00
Zn1      0.29047    0.57223    0.25023   1.00
O2       0.27193    0.69277    0.20227   1.00
O2       0.42083    0.72807    0.20227   1.00
O2       0.30723    0.57917    0.20227   1.00
O2       0.24633    0.73827    0.22817   1.00
O2       0.33797    0.78693    0.26743   1.00
O2       0.20747    0.64743    0.26703   1.00
O2       0.49193    0.75367    0.22817   1.00
O2       0.43997    0.79253    0.26703   1.00
O2       0.44897    0.66203    0.26743   1.00
O2       0.26173    0.50807    0.22817   1.00
O2       0.21307    0.55103    0.26743   1.00
O2       0.35257    0.56003    0.26703   1.00
C1       0.24723    0.72687    0.20997   1.00
C1       0.47963    0.75277    0.20997   1.00
C1       0.27313    0.52037    0.20997   1.00
C1       0.39997    0.81063    0.27303   1.00
C1       0.18937    0.58933    0.27303   1.00
C1       0.41067    0.60003    0.27303   1.00
O1       0.33333    0.66667    0.59197   1.00
Zn1      0.33333    0.66667    0.62107   1.00
Zn1      0.37620    0.61510    0.58310   1.00
Zn1      0.38490    0.76110    0.58310   1.00
Zn1      0.23890    0.62380    0.58310   1.00
O2       0.35943    0.60527    0.63107   1.00
O2       0.39473    0.75417    0.63107   1.00
O2       0.24583    0.64057    0.63107   1.00
O2       0.40493    0.57967    0.60517   1.00
O2       0.45360    0.67130    0.56590   1.00
O2       0.31410    0.54080    0.56630   1.00
O2       0.42033    0.82527    0.60517   1.00
O2       0.45920    0.77330    0.56630   1.00
O2       0.32870    0.78230    0.56590   1.00
O2       0.17473    0.59507    0.60517   1.00
O2       0.21770    0.54640    0.56590   1.00
O2       0.22670    0.68590    0.56630   1.00
C1       0.39353    0.58057    0.62337   1.00
C1       0.41943    0.81297    0.62337   1.00
C1       0.18703    0.60647    0.62337   1.00
C1       0.47730    0.73330    0.56030   1.00
C1       0.25600    0.52270    0.56030   1.00
C1       0.26670    0.74400    0.56030   1.00
O1       0.33333    0.66667    0.09197   1.00
Zn1      0.33333    0.66667    0.12107   1.00
Zn1      0.38490    0.62380    0.08310   1.00
Zn1      0.23890    0.61510    0.08310   1.00
Zn1      0.37620    0.76110    0.08310   1.00
O2       0.39473    0.64057    0.13107   1.00
O2       0.24583    0.60527    0.13107   1.00
O2       0.35943    0.75417    0.13107   1.00
O2       0.42033    0.59507    0.10517   1.00
O2       0.32870    0.54640    0.06590   1.00
O2       0.45920    0.68590    0.06630   1.00
O2       0.17473    0.57967    0.10517   1.00
O2       0.22670    0.54080    0.06630   1.00
O2       0.21770    0.67130    0.06590   1.00
O2       0.40493    0.82527    0.10517   1.00
O2       0.45360    0.78230    0.06590   1.00
O2       0.31410    0.77330    0.06630   1.00
C1       0.41943    0.60647    0.12337   1.00
C1       0.18703    0.58057    0.12337   1.00
C1       0.39353    0.81297    0.12337   1.00
C1       0.26670    0.52270    0.06030   1.00
C1       0.47730    0.74400    0.06030   1.00
C1       0.25600    0.73330    0.06030   1.00
O1       0.33333    0.66667    0.74137   1.00
Zn1      0.33333    0.66667    0.71227   1.00
Zn1      0.29047    0.71823    0.75023   1.00
Zn1      0.28177    0.57223    0.75023   1.00
Zn1      0.42777    0.70953    0.75023   1.00
O2       0.30723    0.72807    0.70227   1.00
O2       0.27193    0.57917    0.70227   1.00
O2       0.42083    0.69277    0.70227   1.00
O2       0.26173    0.75367    0.72817   1.00
O2       0.21307    0.66203    0.76743   1.00
O2       0.35257    0.79253    0.76703   1.00
O2       0.24633    0.50807    0.72817   1.00
O2       0.20747    0.56003    0.76703   1.00
O2       0.33797    0.55103    0.76743   1.00
O2       0.49193    0.73827    0.72817   1.00
O2       0.44897    0.78693    0.76743   1.00
O2       0.43997    0.64743    0.76703   1.00
C1       0.27313    0.75277    0.70997   1.00
C1       0.24723    0.52037    0.70997   1.00
C1       0.47963    0.72687    0.70997   1.00
C1       0.18937    0.60003    0.77303   1.00
C1       0.41067    0.81063    0.77303   1.00
C1       0.39997    0.58933    0.77303   1.00
C4       0.83581    0.62414    0.49042   1.00
C4       0.86140    0.67976    0.50440   1.00
C3       0.87889    0.61514    0.47653   1.00
C3       0.93247    0.72605    0.50695   1.00
C3       0.76453    0.57521    0.49008   1.00
C3       0.81487    0.69020    0.51644   1.00
C2       0.78464    0.50985    0.46282   1.00
C2       0.91309    0.79422    0.53194   1.00
C3       0.85427    0.55961    0.46321   1.00
C3       0.95764    0.78176    0.52022   1.00
C3       0.74156    0.51919    0.47636   1.00
C3       0.84257    0.74777    0.52969   1.00
H1       0.92968    0.64897    0.47543   1.00
H1       0.96865    0.72063    0.49941   1.00
C5       0.71823    0.58312    0.50310   1.00
C5       0.74289    0.64364    0.51516   1.00
H1       0.88802    0.55589    0.45363   1.00
H1       1.00946    0.81344    0.52130   1.00
H1       0.69133    0.48310    0.47577   1.00
H1       0.81110    0.75716    0.53839   1.00
C6       0.64423    0.52727    0.50413   1.00
C6       0.69393    0.65933    0.52634   1.00
H2       0.64173    0.47798    0.50480   1.00
H2       0.71007    0.71307    0.52432   1.00
H2       0.62092    0.52792    0.51848   1.00
H2       0.64385    0.63470    0.51928   1.00
C6       0.59998    0.53038    0.48633   1.00
C6       0.68590    0.63913    0.54934   1.00
H2       0.62777    0.53972    0.47204   1.00
H2       0.73606    0.65527    0.55588   1.00
C6       0.52710    0.46721    0.48323   1.00
C6       0.64897    0.66643    0.56334   1.00
H2       0.59473    0.57529    0.48870   1.00
H2       0.65834    0.58350    0.55022   1.00
C6       0.53039    0.40322    0.47656   1.00
C6       0.69075    0.74515    0.56554   1.00
C6       0.48330    0.45044    0.50271   1.00
C6       0.57667    0.64527    0.55540   1.00
C6       0.49063    0.48396    0.46612   1.00
C6       0.64141    0.63529    0.58482   1.00
H2       0.56190    0.41373    0.46302   1.00
H2       0.74247    0.76183    0.57081   1.00
H2       0.55171    0.38603    0.48843   1.00
H2       0.69448    0.77052    0.55118   1.00
H2       0.47967    0.36083    0.47308   1.00
H2       0.66699    0.76320    0.57642   1.00
H2       0.43116    0.40950    0.49996   1.00
H2       0.54956    0.66032    0.56601   1.00
H2       0.50422    0.43375    0.51486   1.00
H2       0.57929    0.66965    0.54091   1.00
H2       0.48134    0.49509    0.50797   1.00
H2       0.54665    0.59017    0.55331   1.00
H2       0.51917    0.49552    0.45193   1.00
H2       0.69120    0.64933    0.59124   1.00
H2       0.43955    0.44110    0.46329   1.00
H2       0.61624    0.65325    0.59523   1.00
H2       0.48550    0.52795    0.47012   1.00
H2       0.61115    0.57974    0.58434   1.00
C4       0.36798    0.19871    0.48733   1.00
C4       0.30912    0.16826    0.50009   1.00
C3       0.42260    0.18503    0.48957   1.00
C3       0.29741    0.11672    0.51454   1.00
C3       0.37335    0.24481    0.47166   1.00
C3       0.25946    0.18946    0.49854   1.00
C2       0.48551    0.25766    0.46088   1.00
C2       0.19178    0.10902    0.52662   1.00
C3       0.47945    0.21327    0.47671   1.00
C3       0.24076    0.08817    0.52748   1.00
C3       0.43192    0.27219    0.45881   1.00
C3       0.20267    0.15938    0.51208   1.00
H1       0.42343    0.15457    0.50076   1.00
H1       0.32927    0.09750    0.51607   1.00
C5       0.32136    0.26278    0.46920   1.00
C5       0.26700    0.23908    0.48370   1.00
H1       0.51699    0.20116    0.47907   1.00
H1       0.23539    0.05139    0.53763   1.00
H1       0.43734    0.30478    0.44741   1.00
H1       0.16654    0.17347    0.51153   1.00
C6       0.32409    0.30579    0.45125   1.00
C6       0.21804    0.26631    0.48368   1.00
H2       0.33729    0.28740    0.43769   1.00
H2       0.20997    0.27691    0.49924   1.00
H2       0.27382    0.29735    0.44735   1.00
H2       0.24073    0.31668    0.47685   1.00
C6       0.37354    0.38404    0.45458   1.00
C6       0.14894    0.21793    0.47271   1.00
H2       0.42115    0.39220    0.46133   1.00
H2       0.13064    0.16524    0.47736   1.00
C6       0.39213    0.43176    0.43562   1.00
C6       0.08907    0.23295    0.47561   1.00
H2       0.35068    0.40142    0.46600   1.00
H2       0.15946    0.21929    0.45649   1.00
C6       0.43467    0.41762    0.41995   1.00
C6       0.06347    0.22135    0.49787   1.00
C6       0.32759    0.42441    0.42512   1.00
C6       0.10997    0.30663    0.46914   1.00
C6       0.43622    0.50685    0.44275   1.00
C6       0.02843    0.18302    0.46204   1.00
H2       0.48008    0.42131    0.42698   1.00
H2       0.04935    0.17009    0.50301   1.00
H2       0.40521    0.36693    0.41336   1.00
H2       0.10235    0.25771    0.50812   1.00
H2       0.45138    0.45419    0.40749   1.00
H2       0.01876    0.22732    0.49944   1.00
H2       0.34122    0.46130    0.41283   1.00
H2       0.06655    0.31501    0.46984   1.00
H2       0.29701    0.37371    0.41859   1.00
H2       0.14940    0.34388    0.47911   1.00
H2       0.29599    0.43271    0.43593   1.00
H2       0.12955    0.31660    0.45365   1.00
H2       0.48292    0.51499    0.45011   1.00
H2       0.01118    0.13012    0.46614   1.00
H2       0.45091    0.54220    0.43000   1.00
H2       -0.01493   0.19122    0.46365   1.00
H2       0.40841    0.52039    0.45356   1.00
H2       0.04294    0.18970    0.44606   1.00
C4       0.80020    0.16738    0.48704   1.00
C4       0.83003    0.13846    0.49986   1.00
C3       0.82526    0.23891    0.48611   1.00
C3       0.89115    0.17930    0.51100   1.00
C3       0.74304    0.12387    0.47459   1.00
C3       0.79827    0.06601    0.50177   1.00
C2       0.74205    0.22622    0.46039   1.00
C2       0.88858    0.08013    0.52656   1.00
C3       0.79738    0.26758    0.47313   1.00
C3       0.91945    0.15117    0.52403   1.00
C3       0.71637    0.15513    0.46150   1.00
C3       0.82851    0.03940    0.51529   1.00
H1       0.86428    0.27282    0.49498   1.00
H1       0.91779    0.23101    0.50991   1.00
C5       0.71377    0.05125    0.47549   1.00
C5       0.73824    0.02218    0.49029   1.00
H1       0.81794    0.31958    0.47312   1.00
H1       0.96347    0.18341    0.53170   1.00
H1       0.67604    0.12592    0.45232   1.00
H1       0.80716    -0.01183   0.51716   1.00
C6       0.65807    0.00636    0.46071   1.00
C6       0.70113    -0.05396   0.49408   1.00
H2       0.67171    0.02899    0.44563   1.00
H2       0.69777    -0.06317   0.51037   1.00
H2       0.65616    -0.04206   0.45833   1.00
H2       0.64763    -0.07779   0.48989   1.00
C6       0.58563    -0.00770   0.46728   1.00
C6       0.73409    -0.09138   0.48283   1.00
H2       0.58907    0.03971    0.47253   1.00
H2       0.78950    -0.06205   0.48455   1.00
C6       0.52704    -0.04036   0.45119   1.00
C6       0.70978    -0.16681   0.48909   1.00
H2       0.57015    -0.04094   0.48057   1.00
H2       0.72481    -0.09043   0.46660   1.00
C6       0.53991    0.00866    0.43316   1.00
C6       0.73094    -0.17147   0.51116   1.00
C6       0.51766    -0.10866   0.44299   1.00
C6       0.63153    -0.21281   0.48691   1.00
C6       0.45930    -0.05524   0.46149   1.00
C6       0.74429    -0.19528   0.47485   1.00
H2       0.54786    0.05780    0.43847   1.00
H2       0.78582    -0.13867   0.51329   1.00
H2       0.58463    0.01801    0.42445   1.00
H2       0.70514    -0.15615   0.52211   1.00
H2       0.49665    -0.01260   0.42275   1.00
H2       0.71798    -0.22353   0.51490   1.00
H2       0.47364    -0.13338   0.43290   1.00
H2       0.61572    -0.26610   0.48991   1.00
H2       0.56223    -0.10045   0.43438   1.00
H2       0.60472    -0.19784   0.49762   1.00
H2       0.50994    -0.14360   0.45542   1.00
H2       0.61510    -0.20935   0.47161   1.00
H2       0.46296    -0.00844   0.46737   1.00
H2       0.79976    -0.16497   0.47598   1.00
H2       0.41681    -0.07774   0.45079   1.00
H2       0.72922    -0.24784   0.47873   1.00
H2       0.44668    -0.09074   0.47412   1.00
H2       0.73019    -0.19463   0.45906   1.00
C4       0.62402    0.83551    0.00954   1.00
C4       0.67966    0.86102    -0.00443   1.00
C3       0.61371    0.87896    0.02292   1.00
C3       0.72459    0.93212    -0.00751   1.00
C3       0.57643    0.76394    0.01040   1.00
C3       0.69154    0.81439    -0.01592   1.00
C2       0.50965    0.78437    0.03710   1.00
C2       0.79420    0.91269    -0.03195   1.00
C3       0.55813    0.85434    0.03622   1.00
C3       0.78033    0.95729    -0.02076   1.00
C3       0.52030    0.74097    0.02408   1.00
C3       0.74910    0.84210    -0.02917   1.00
H1       0.64658    0.93006    0.02364   1.00
H1       0.71808    0.96830    -0.00039   1.00
C5       0.58574    0.71735    -0.00209   1.00
C5       0.64638    0.74227    -0.01410   1.00
H1       0.55342    0.88836    0.04542   1.00
H1       0.81098    1.00914    -0.02224   1.00
H1       0.48514    0.69050    0.02502   1.00
H1       0.75949    0.81057    -0.03749   1.00
C6       0.53120    0.64278    -0.00260   1.00
C6       0.66364    0.69347    -0.02468   1.00
H2       0.48130    0.63885    -0.00349   1.00
H2       0.71767    0.71108    -0.02256   1.00
H2       0.53249    0.61853    -0.01669   1.00
H2       0.64010    0.64408    -0.01721   1.00
C6       0.53564    0.60090    0.01568   1.00
C6       0.64335    0.68288    -0.04768   1.00
H2       0.54434    0.62984    0.02971   1.00
H2       0.65828    0.73216    -0.05468   1.00
C6       0.47365    0.52759    0.01924   1.00
C6       0.67205    0.64600    -0.06115   1.00
H2       0.58131    0.59679    0.01359   1.00
H2       0.58773    0.65407    -0.04855   1.00
C6       0.40869    0.52962    0.02556   1.00
C6       0.75067    0.68919    -0.06340   1.00
C6       0.45785    0.48219    0.00016   1.00
C6       0.65265    0.57490    -0.05254   1.00
C6       0.49169    0.49370    0.03681   1.00
C6       0.64065    0.63570    -0.08269   1.00
H2       0.41848    0.56220    0.03881   1.00
H2       0.76611    0.74014    -0.06914   1.00
H2       0.39065    0.54905    0.01338   1.00
H2       0.77631    0.69491    -0.04896   1.00
H2       0.36716    0.47877    0.02937   1.00
H2       0.76962    0.66531    -0.07393   1.00
H2       0.41783    0.42991    0.00325   1.00
H2       0.66865    0.54766    -0.06278   1.00
H2       0.44032    0.50121    -0.01229   1.00
H2       0.67732    0.57950    -0.03796   1.00
H2       0.50317    0.48104    -0.00486   1.00
H2       0.59763    0.54395    -0.05040   1.00
H2       0.50263    0.52344    0.05075   1.00
H2       0.65347    0.68456    -0.08956   1.00
H2       0.44969    0.44242    0.03997   1.00
H2       0.65955    0.61047    -0.09273   1.00
H2       0.53643    0.48953    0.03309   1.00
H2       0.58519    0.60435    -0.08216   1.00
C4       0.19872    0.36798    0.01268   1.00
C4       0.16827    0.30911    -0.00009   1.00
C3       0.18498    0.42256    0.01045   1.00
C3       0.11667    0.29737    -0.01453   1.00
C3       0.24488    0.37339    0.02833   1.00
C3       0.18953    0.25950    0.00144   1.00
C2       0.25766    0.48550    0.03912   1.00
C2       0.10903    0.19178    -0.02662   1.00
C3       0.21321    0.47941    0.02331   1.00
C3       0.08813    0.24072    -0.02747   1.00
C3       0.27225    0.43195    0.04118   1.00
C3       0.15945    0.20271    -0.01209   1.00
H1       0.15446    0.42337    -0.00073   1.00
H1       0.09741    0.32919    -0.01604   1.00
C5       0.26290    0.32143    0.03077   1.00
C5       0.23920    0.26707    0.01627   1.00
H1       0.20106    0.51692    0.02096   1.00
H1       0.05131    0.23532    -0.03760   1.00
H1       0.30489    0.43740    0.05256   1.00
H1       0.17358    0.16660    -0.01156   1.00
C6       0.30598    0.32420    0.04870   1.00
C6       0.26649    0.21817    0.01627   1.00
H2       0.28761    0.33738    0.06228   1.00
H2       0.27706    0.21010    0.00071   1.00
H2       0.29760    0.27394    0.05260   1.00
H2       0.31688    0.24089    0.02309   1.00
C6       0.38421    0.37369    0.04536   1.00
C6       0.21819    0.14905    0.02725   1.00
H2       0.39232    0.42129    0.03862   1.00
H2       0.16547    0.13071    0.02262   1.00
C6       0.43199    0.39232    0.06430   1.00
C6       0.23325    0.08922    0.02433   1.00
H2       0.40159    0.35086    0.03393   1.00
H2       0.21958    0.15957    0.04347   1.00
C6       0.41785    0.43483    0.07999   1.00
C6       0.22160    0.06362    0.00207   1.00
C6       0.42472    0.32780    0.07480   1.00
C6       0.30697    0.11018    0.03078   1.00
C6       0.50706    0.43645    0.05716   1.00
C6       0.18339    0.02856    0.03791   1.00
H2       0.42149    0.48022    0.07296   1.00
H2       0.17033    0.04946    -0.00305   1.00
H2       0.36719    0.40533    0.08659   1.00
H2       0.25792    0.10252    -0.00819   1.00
H2       0.45446    0.45156    0.09244   1.00
H2       0.22762    0.01894    0.00049   1.00
H2       0.46166    0.34145    0.08707   1.00
H2       0.31539    0.06678    0.03007   1.00
H2       0.37405    0.29719    0.08134   1.00
H2       0.34417    0.14962    0.02080   1.00
H2       0.43303    0.29622    0.06398   1.00
H2       0.31697    0.12975    0.04627   1.00
H2       0.51514    0.48314    0.04981   1.00
H2       0.13047    0.01127    0.03382   1.00
H2       0.54245    0.45117    0.06990   1.00
H2       0.19163    -0.01477   0.03629   1.00
H2       0.52059    0.40867    0.04634   1.00
H2       0.19011    0.04306    0.05389   1.00
C4       0.16738    0.80020    0.01296   1.00
C4       0.13846    0.83003    0.00014   1.00
C3       0.23891    0.82526    0.01389   1.00
C3       0.17930    0.89115    -0.01100   1.00
C3       0.12387    0.74304    0.02541   1.00
C3       0.06601    0.79827    -0.00177   1.00
C2       0.22622    0.74205    0.03961   1.00
C2       0.08013    0.88858    -0.02656   1.00
C3       0.26758    0.79738    0.02687   1.00
C3       0.15117    0.91945    -0.02403   1.00
C3       0.15513    0.71637    0.03850   1.00
C3       0.03940    0.82851    -0.01529   1.00
H1       0.27282    0.86427    0.00502   1.00
H1       0.23101    0.91779    -0.00991   1.00
C5       0.05125    0.71377    0.02451   1.00
C5       0.02218    0.73824    0.00971   1.00
H1       0.31958    0.81794    0.02688   1.00
H1       0.18341    0.96347    -0.03170   1.00
H1       0.12592    0.67604    0.04768   1.00
H1       -0.01183   0.80716    -0.01716   1.00
C6       0.00636    0.65807    0.03929   1.00
C6       -0.05396   0.70113    0.00592   1.00
H2       0.02899    0.67171    0.05437   1.00
H2       -0.06317   0.69778    -0.01037   1.00
H2       -0.04206   0.65616    0.04167   1.00
H2       -0.07779   0.64763    0.01011   1.00
C6       -0.00770   0.58563    0.03272   1.00
C6       -0.09138   0.73409    0.01717   1.00
H2       0.03971    0.58907    0.02747   1.00
H2       -0.06205   0.78950    0.01545   1.00
C6       -0.04036   0.52705    0.04881   1.00
C6       -0.16681   0.70978    0.01091   1.00
H2       -0.04094   0.57015    0.01943   1.00
H2       -0.09043   0.72481    0.03340   1.00
C6       0.00866    0.53991    0.06684   1.00
C6       -0.17147   0.73094    -0.01116   1.00
C6       -0.10866   0.51766    0.05701   1.00
C6       -0.21281   0.63153    0.01309   1.00
C6       -0.05524   0.45930    0.03851   1.00
C6       -0.19528   0.74429    0.02515   1.00
H2       0.05780    0.54786    0.06153   1.00
H2       -0.13867   0.78583    -0.01329   1.00
H2       0.01801    0.58463    0.07555   1.00
H2       -0.15615   0.70514    -0.02211   1.00
H2       -0.01260   0.49665    0.07725   1.00
H2       -0.22353   0.71798    -0.01490   1.00
H2       -0.13338   0.47364    0.06710   1.00
H2       -0.26610   0.61572    0.01009   1.00
H2       -0.10045   0.56224    0.06562   1.00
H2       -0.19784   0.60472    0.00238   1.00
H2       -0.14360   0.50994    0.04458   1.00
H2       -0.20935   0.61510    0.02839   1.00
H2       -0.00844   0.46296    0.03263   1.00
H2       -0.16497   0.79976    0.02402   1.00
H2       -0.07774   0.41681    0.04921   1.00
H2       -0.24784   0.72922    0.02127   1.00
H2       -0.09074   0.44668    0.02588   1.00
H2       -0.19463   0.73019    0.04094   1.00
C4       0.16496    0.36659    0.51316   1.00
C4       0.13956    0.30870    0.50005   1.00
C3       0.12111    0.38485    0.52347   1.00
C3       0.06859    0.26108    0.49801   1.00
C3       0.23682    0.40845    0.51622   1.00
C3       0.18618    0.29712    0.48845   1.00
C2       0.21606    0.48169    0.54044   1.00
C2       0.08793    0.19346    0.47281   1.00
C3       0.14573    0.44041    0.53678   1.00
C3       0.04342    0.20538    0.48474   1.00
C3       0.25980    0.46435    0.52998   1.00
C3       0.15845    0.23999    0.47503   1.00
H1       0.06967    0.35888    0.52154   1.00
H1       0.03256    0.26471    0.50624   1.00
C5       0.28364    0.39430    0.50560   1.00
C5       0.25832    0.34167    0.49050   1.00
H1       0.11143    0.45074    0.54382   1.00
H1       -0.00834   0.17306    0.48390   1.00
H1       0.31049    0.49501    0.53266   1.00
H1       0.18994    0.23034    0.46643   1.00
C6       0.35894    0.43449    0.51061   1.00
C6       0.30669    0.33309    0.47658   1.00
H2       0.36511    0.43945    0.52702   1.00
H2       0.28681    0.32462    0.46115   1.00
H2       0.38455    0.40608    0.50696   1.00
H2       0.35490    0.38037    0.47491   1.00
C6       0.39704    0.50562    0.49979   1.00
C6       0.32118    0.27540    0.48361   1.00
H2       0.36641    0.53052    0.50089   1.00
H2       0.27341    0.23046    0.48816   1.00
C6       0.47085    0.55758    0.50722   1.00
C6       0.35782    0.25167    0.46822   1.00
H2       0.39931    0.49654    0.48361   1.00
H2       0.35191    0.29291    0.49741   1.00
C6       0.47086    0.58175    0.52924   1.00
C6       0.31248    0.21591    0.44947   1.00
C6       0.51857    0.52704    0.50598   1.00
C6       0.42686    0.31205    0.46105   1.00
C6       0.50064    0.62137    0.49328   1.00
C6       0.37231    0.19920    0.47897   1.00
H2       0.43675    0.60258    0.53070   1.00
H2       0.26287    0.17368    0.45404   1.00
H2       0.45441    0.54008    0.54005   1.00
H2       0.30372    0.25114    0.44048   1.00
H2       0.52181    0.62141    0.53377   1.00
H2       0.33644    0.19540    0.43954   1.00
H2       0.57094    0.56518    0.50980   1.00
H2       0.45420    0.29428    0.45149   1.00
H2       0.50254    0.48474    0.51656   1.00
H2       0.41922    0.34830    0.45217   1.00
H2       0.51838    0.50831    0.49072   1.00
H2       0.45922    0.33901    0.47399   1.00
H2       0.46915    0.64536    0.49377   1.00
H2       0.32502    0.15506    0.48415   1.00
H2       0.55212    0.65944    0.49796   1.00
H2       0.39752    0.18072    0.46876   1.00
H2       0.50325    0.60780    0.47756   1.00
H2       0.40530    0.22186    0.49213   1.00
C4       0.63263    0.80054    0.51289   1.00
C4       0.68990    0.83294    0.49955   1.00
C3       0.62739    0.75386    0.52825   1.00
C3       0.74899    0.82656    0.50199   1.00
C3       0.57799    0.81467    0.51100   1.00
C3       0.68898    0.87357    0.48309   1.00
C2       0.51842    0.73754    0.54052   1.00
C2       0.80435    0.89570    0.47201   1.00
C3       0.57225    0.72352    0.54172   1.00
C3       0.80438    0.85665    0.48860   1.00
C3       0.52293    0.78300    0.52510   1.00
C3       0.74626    0.90304    0.46973   1.00
H1       0.66312    0.73963    0.53008   1.00
H1       0.75428    0.80037    0.51371   1.00
C5       0.57902    0.85900    0.49530   1.00
C5       0.63215    0.88422    0.48036   1.00
H1       0.57163    0.69051    0.55251   1.00
H1       0.84536    0.84989    0.49115   1.00
H1       0.48336    0.79215    0.52433   1.00
H1       0.74729    0.93187    0.45776   1.00
C6       0.52459    0.87919    0.49482   1.00
C6       0.62858    0.92118    0.46167   1.00
H2       0.51638    0.89147    0.51017   1.00
H2       0.64322    0.90255    0.44845   1.00
H2       0.54221    0.92754    0.48709   1.00
H2       0.57635    0.90693    0.45796   1.00
C6       0.45634    0.82392    0.48480   1.00
C6       0.67217    1.00074    0.46354   1.00
H2       0.44338    0.77341    0.49040   1.00
H2       0.72190    1.01503    0.47010   1.00
C6       0.39206    0.83205    0.48747   1.00
C6       0.68465    1.04366    0.44376   1.00
H2       0.46573    0.82300    0.46858   1.00
H2       0.64730    1.01692    0.47465   1.00
C6       0.36853    0.82295    0.50992   1.00
C6       0.72944    1.03181    0.42833   1.00
C6       0.40526    0.90217    0.47968   1.00
C6       0.61669    1.02750    0.43346   1.00
C6       0.33263    0.77571    0.47488   1.00
C6       0.72331    1.12046    0.44949   1.00
H2       0.35985    0.77435    0.51598   1.00
H2       0.77738    1.04172    0.43525   1.00
H2       0.40631    0.86348    0.51947   1.00
H2       0.70348    0.97963    0.42269   1.00
H2       0.32106    0.82398    0.51142   1.00
H2       0.74178    1.06540    0.41523   1.00
H2       0.35879    0.90542    0.48026   1.00
H2       0.62578    1.06109    0.42052   1.00
H2       0.44348    0.94353    0.48894   1.00
H2       0.58957    0.97520    0.42787   1.00
H2       0.42327    0.91047    0.46403   1.00
H2       0.58359    1.03406    0.44413   1.00
H2       0.32074    0.72501    0.47993   1.00
H2       0.77215    1.13475    0.45665   1.00
H2       0.28633    0.77899    0.47637   1.00
H2       0.73364    1.15262    0.43612   1.00
H2       0.34564    0.78028    0.45879   1.00
H2       0.69361    1.13235    0.46006   1.00
C4       0.19956    0.83225    0.51291   1.00
C4       0.16714    0.85714    0.49959   1.00
C3       0.24723    0.87404    0.52801   1.00
C3       0.17458    0.92311    0.50181   1.00
C3       0.18442    0.76309    0.51127   1.00
C3       0.12542    0.81509    0.48336   1.00
C2       0.26263    0.78106    0.54052   1.00
C2       0.10433    0.90882    0.47206   1.00
C3       0.27761    0.84926    0.54148   1.00
C3       0.14446    0.94841    0.48843   1.00
C3       0.21616    0.73974    0.52535   1.00
C3       0.09596    0.84291    0.46999   1.00
H1       0.26219    0.92424    0.52966   1.00
H1       0.20160    0.95501    0.51336   1.00
C5       0.13902    0.71938    0.49582   1.00
C5       0.11371    0.74714    0.48086   1.00
H1       0.31137    0.88192    0.55208   1.00
H1       0.15201    0.99652    0.49081   1.00
H1       0.20631    0.69076    0.52475   1.00
H1       0.06636    0.81475    0.45819   1.00
C6       0.11785    0.64449    0.49562   1.00
C6       0.07553    0.70596    0.46240   1.00
H2       0.10608    0.62479    0.51107   1.00
H2       0.09388    0.73854    0.44903   1.00
H2       0.06903    0.61388    0.48811   1.00
H2       0.08891    0.66729    0.45877   1.00
C6       0.17201    0.63008    0.48549   1.00
C6       -0.00387   0.67102    0.46460   1.00
H2       0.22297    0.66742    0.49084   1.00
H2       -0.01720   0.70726    0.47108   1.00
C6       0.16299    0.55739    0.48841   1.00
C6       -0.04786   0.64004    0.44502   1.00
H2       0.17231    0.63966    0.46924   1.00
H2       -0.02001   0.63047    0.47587   1.00
C6       0.17287    0.54382    0.51087   1.00
C6       -0.03599   0.69616    0.42939   1.00
C6       0.09218    0.50073    0.48097   1.00
C6       -0.03310   0.58711    0.43484   1.00
C6       0.21824    0.55280    0.47567   1.00
C6       -0.12437   0.60306    0.45107   1.00
H2       0.22199    0.58359    0.51668   1.00
H2       -0.04492   0.73496    0.43622   1.00
H2       0.13307    0.54213    0.52054   1.00
H2       0.01591    0.72150    0.42353   1.00
H2       0.17119    0.49505    0.51252   1.00
H2       -0.07027   0.67462    0.41644   1.00
H2       0.08824    0.45072    0.48172   1.00
H2       -0.06741   0.56230    0.42207   1.00
H2       0.05154    0.49865    0.49035   1.00
H2       0.01891    0.61140    0.42903   1.00
H2       0.08334    0.50987    0.46532   1.00
H2       -0.03970   0.54777    0.44564   1.00
H2       0.26938    0.59138    0.48047   1.00
H2       -0.13769   0.63843    0.45816   1.00
H2       0.21432    0.50299    0.47732   1.00
H2       -0.15725   0.58090    0.43786   1.00
H2       0.21307    0.56059    0.45958   1.00
H2       -0.13629   0.56186    0.46180   1.00
C4       0.37585    0.16416    0.99041   1.00
C4       0.31866    0.13465    1.00384   1.00
C3       0.42970    0.23294    0.99236   1.00
C3       0.31480    0.16939    1.02137   1.00
C3       0.38014    0.12413    0.97432   1.00
C3       0.26277    0.06785    0.99984   1.00
C2       0.49317    0.22288    0.96389   1.00
C2       0.20157    0.07640    1.03046   1.00
C3       0.48678    0.26142    0.97958   1.00
C3       0.25796    0.14141    1.03423   1.00
C3       0.43931    0.15493    0.96171   1.00
C3       0.20568    0.04134    1.01326   1.00
H1       0.42915    0.26515    1.00300   1.00
H1       0.35344    0.21606    1.02555   1.00
C5       0.32613    0.05547    0.97108   1.00
C5       0.26498    0.02923    0.98291   1.00
H1       0.52402    0.31125    0.98183   1.00
H1       0.25819    0.16918    1.04658   1.00
H1       0.44443    0.12795    0.95020   1.00
H1       0.16477    -0.00579   1.01084   1.00
C6       0.33466    0.01143    0.95540   1.00
C6       0.20261    -0.03823   0.97762   1.00
H2       0.38574    0.01840    0.95670   1.00
H2       0.15750    -0.03284   0.97864   1.00
H2       0.30302    -0.04252   0.95881   1.00
H2       0.20210    -0.05084   0.96169   1.00
C6       0.31917    0.02484    0.93324   1.00
C6       0.19519    -0.09906   0.99087   1.00
H2       0.34300    0.07975    0.93065   1.00
H2       0.20550    -0.08327   1.00675   1.00
C6       0.34068    -0.00618   0.91543   1.00
C6       0.12559    -0.16762   0.98994   1.00
H2       0.26435    0.00538    0.93211   1.00
H2       0.23564    -0.10935   0.98640   1.00
C6       0.41932    0.02704    0.91392   1.00
C6       0.06669    -0.15998   0.99914   1.00
C6       0.30852    -0.08442   0.91763   1.00
C6       0.10691    -0.19467   0.96794   1.00
C6       0.31505    0.00814    0.89519   1.00
C6       0.13194    -0.22188   1.00268   1.00
H2       0.44366    0.08245    0.91268   1.00
H2       0.07880    -0.13989   1.01457   1.00
H2       0.44039    0.01541    0.92717   1.00
H2       0.05660    -0.12562   0.99016   1.00
H2       0.43394    0.00853    0.90064   1.00
H2       0.01945    -0.20900   0.99971   1.00
H2       0.31982    -0.10617   0.90443   1.00
H2       0.06090    -0.24479   0.96762   1.00
H2       0.32848    -0.09716   0.93094   1.00
H2       0.09725    -0.16058   0.95864   1.00
H2       0.25324    -0.10893   0.91915   1.00
H2       0.14818    -0.19917   0.96096   1.00
H2       0.33688    0.06286    0.89278   1.00
H2       0.14441    -0.20556   1.01844   1.00
H2       0.32927    -0.01221   0.88225   1.00
H2       0.08433    -0.27067   1.00261   1.00
H2       0.25962    -0.01525   0.89515   1.00
H2       0.17187    -0.23059   0.99668   1.00
C4       0.80143    0.63186    0.98738   1.00
C4       0.83362    0.68875    1.00086   1.00
C3       0.76627    0.63283    0.96958   1.00
C3       0.83910    0.75288    0.99640   1.00
C3       0.80389    0.57121    0.99165   1.00
C3       0.86178    0.68222    1.01958   1.00
C2       0.73918    0.51808    0.95958   1.00
C2       0.89572    0.80282    1.02856   1.00
C3       0.73635    0.57788    0.95602   1.00
C3       0.86887    0.80813    1.00985   1.00
C3       0.77311    0.51652    0.97741   1.00
C3       0.89134    0.73960    1.03290   1.00
H1       0.76049    0.67325    0.96589   1.00
H1       0.82227    0.76205    0.98313   1.00
C5       0.83607    0.56614    1.00978   1.00
C5       0.86035    0.61984    1.02452   1.00
H1       0.71197    0.58188    0.94341   1.00
H1       0.87100    0.85294    1.00577   1.00
H1       0.77421    0.47275    0.97984   1.00
H1       0.91148    0.73678    1.04640   1.00
C6       0.84467    0.50466    1.01302   1.00
C6       0.88372    0.61120    1.04527   1.00
H2       0.86172    0.49299    0.99890   1.00
H2       0.86313    0.63064    1.05673   1.00
H2       0.88713    0.51621    1.02308   1.00
H2       0.86034    0.55779    1.04952   1.00
C6       0.77885    0.44107    1.02145   1.00
C6       0.96314    0.64497    1.04704   1.00
H2       0.73421    0.43497    1.01322   1.00
H2       0.98751    0.69552    1.04006   1.00
C6       0.77653    0.37080    1.02113   1.00
C6       0.99401    0.65261    1.06878   1.00
H2       0.77174    0.45223    1.03708   1.00
H2       0.97878    0.61510    1.03780   1.00
C6       0.77531    0.34574    0.99915   1.00
C6       0.98351    0.70337    1.08197   1.00
C6       0.83766    0.37413    1.03270   1.00
C6       0.96306    0.58308    1.07985   1.00
C6       0.70999    0.31698    1.03177   1.00
C6       1.07199    0.68132    1.06673   1.00
H2       0.73334    0.34390    0.99047   1.00
H2       1.00384    0.75269    1.07441   1.00
H2       0.82257    0.37911    0.99115   1.00
H2       0.92973    0.68430    1.08507   1.00
H2       0.76892    0.29468    0.99908   1.00
H2       1.00926    0.71196    1.09656   1.00
H2       0.83298    0.32384    1.03364   1.00
H2       0.98834    0.58818    1.09437   1.00
H2       0.88560    0.40786    1.02504   1.00
H2       0.90900    0.56277    1.08293   1.00
H2       0.84054    0.39301    1.04811   1.00
H2       0.96850    0.54596    1.07069   1.00
H2       0.66511    0.31210    1.02404   1.00
H2       1.09651    0.73088    1.05917   1.00
H2       0.70581    0.26681    1.03182   1.00
H2       1.09600    0.68801    1.08156   1.00
H2       0.70846    0.33112    1.04751   1.00
H2       1.08272    0.64700    1.05790   1.00
C4       0.83228    0.19958    0.98708   1.00
C4       0.85718    0.16716    1.00040   1.00
C3       0.87414    0.24746    0.97203   1.00
C3       0.92325    0.17481    0.99823   1.00
C3       0.76305    0.18423    0.98867   1.00
C3       0.81503    0.12521    1.01659   1.00
C2       0.78110    0.26266    0.95948   1.00
C2       0.90885    0.10433    1.02793   1.00
C3       0.84936    0.27784    0.95857   1.00
C3       0.94855    0.14469    1.01161   1.00
C3       0.73970    0.21599    0.97460   1.00
C3       0.84285    0.09575    1.02995   1.00
H1       0.92439    0.26257    0.97042   1.00
H1       0.95523    0.20200    0.98671   1.00
C5       0.71925    0.13862    1.00407   1.00
C5       0.74699    0.11329    1.01903   1.00
H1       0.88208    0.31176    0.94800   1.00
H1       0.99674    0.15239    1.00926   1.00
H1       0.69068    0.20600    0.97516   1.00
H1       0.81461    0.06599    1.04172   1.00
C6       0.64431    0.11725    1.00421   1.00
C6       0.70567    0.07486    1.03745   1.00
H2       0.62477    0.10559    0.98875   1.00
H2       0.73811    0.09315    1.05085   1.00
H2       0.61373    0.06834    1.01167   1.00
H2       0.66687    0.08807    1.04106   1.00
C6       0.62961    0.17118    1.01436   1.00
C6       0.67095    -0.00451   1.03519   1.00
H2       0.66690    0.22223    1.00907   1.00
H2       0.70735    -0.01764   1.02872   1.00
C6       0.55687    0.16197    1.01140   1.00
C6       0.63986    -0.04872   1.05472   1.00
H2       0.63904    0.17135    1.03062   1.00
H2       0.63050    -0.02063   1.02388   1.00
C6       0.54347    0.17202    0.98893   1.00
C6       0.69587    -0.03684   1.07039   1.00
C6       0.50026    0.09103    1.01876   1.00
C6       0.58669    -0.03424   1.06488   1.00
C6       0.55197    0.21700    1.02416   1.00
C6       0.60312    -0.12516   1.04860   1.00
H2       0.58321    0.22124    0.98318   1.00
H2       0.73483    -0.04557   1.06358   1.00
H2       0.54200    0.13237    0.97924   1.00
H2       0.72103    0.01499    1.07630   1.00
H2       0.49465    0.17021    0.98725   1.00
H2       0.67427    -0.07126   1.08330   1.00
H2       0.45020    0.08694    1.01798   1.00
H2       0.56183    -0.06870   1.07761   1.00
H2       0.49840    0.05053    1.00936   1.00
H2       0.61081    0.01770    1.07073   1.00
H2       0.50928    0.08207    1.03441   1.00
H2       0.54743    -0.04085   1.05405   1.00
H2       0.59050    0.26822    1.01942   1.00
H2       0.63866    -0.13828   1.04152   1.00
H2       0.50210    0.21294    1.02248   1.00
H2       0.58090    -0.15819   1.06178   1.00
H2       0.55962    0.21171    1.04026   1.00
H2       0.56201    -0.13708   1.03784   1.00
C4       0.49780    0.96555    0.82058   1.00
C4       0.52634    1.02440    0.83336   1.00
C3       0.42848    0.91260    0.82217   1.00
C3       0.48597    1.03789    0.84711   1.00
C3       0.53946    0.95847    0.80558   1.00
C3       0.59787    1.07219    0.83253   1.00
C2       0.43914    0.84813    0.79410   1.00
C2       0.58450    1.14164    0.85992   1.00
C3       0.39984    0.85580    0.80929   1.00
C3       0.51408    1.09450    0.86007   1.00
C3       0.50823    0.90004    0.79268   1.00
C3       0.62456    1.12899    0.84607   1.00
H1       0.39638    0.91297    0.83289   1.00
H1       0.43451    1.00746    0.84809   1.00
C5       0.61033    1.00869    0.80382   1.00
C5       0.64065    1.06285    0.81839   1.00
H1       0.34945    0.81952    0.81116   1.00
H1       0.48226    1.10120    0.86970   1.00
H1       0.53606    0.89345    0.78174   1.00
H1       0.67523    1.16382    0.84602   1.00
C6       0.65194    1.00433    0.78652   1.00
C6       0.71718    1.10971    0.81918   1.00
H2       0.62223    0.99215    0.77258   1.00
H2       0.73378    1.11717    0.83495   1.00
H2       0.69541    1.05391    0.78290   1.00
H2       0.74422    1.08549    0.81293   1.00
C6       0.67769    0.95276    0.79062   1.00
C6       0.74166    1.17934    0.80805   1.00
H2       0.63631    0.90580    0.79709   1.00
H2       0.70814    1.19937    0.81205   1.00
C6       0.70788    0.93268    0.77225   1.00
C6       0.81698    1.23738    0.81166   1.00
H2       0.71652    0.97444    0.80247   1.00
H2       0.73435    1.16901    0.79179   1.00
C6       0.65272    0.89160    0.75603   1.00
C6       0.82884    1.26288    0.83394   1.00
C6       0.76780    0.99621    0.76217   1.00
C6       0.86861    1.21398    0.80614   1.00
C6       0.73553    0.88649    0.78014   1.00
C6       0.83164    1.29879    0.79785   1.00
H2       0.60917    0.84697    0.76274   1.00
H2       0.79241    1.27875    0.83841   1.00
H2       0.63399    0.92250    0.74892   1.00
H2       0.82349    1.22333    0.84441   1.00
H2       0.67309    0.87380    0.74400   1.00
H2       0.88003    1.30642    0.83596   1.00
H2       0.79160    0.98141    0.75034   1.00
H2       0.92096    1.25617    0.80732   1.00
H2       0.75019    1.02820    0.75513   1.00
H2       0.86360    1.17386    0.81635   1.00
H2       0.80673    1.02681    0.77335   1.00
H2       0.86042    1.19443    0.79066   1.00
H2       0.69497    0.84041    0.78723   1.00
H2       0.79694    1.31779    0.80129   1.00
H2       0.75679    0.87071    0.76782   1.00
H2       0.88364    1.34092    0.79993   1.00
H2       0.77571    0.91317    0.79137   1.00
H2       0.82546    1.28434    0.78187   1.00
C4       0.03385    0.53312    0.82037   1.00
C4       -0.02490   0.50330    0.83319   1.00
C3       0.08034    0.50809    0.81945   1.00
C3       -0.04516   0.44219    0.84434   1.00
C3       0.04749    0.59027    0.80791   1.00
C3       -0.06561   0.53504    0.83510   1.00
C2       0.15085    0.59128    0.79372   1.00
C2       -0.14178   0.44474    0.85989   1.00
C3       0.13689    0.53597    0.80647   1.00
C3       -0.10159   0.41389    0.85736   1.00
C3       0.10542    0.61695    0.79482   1.00
C3       -0.12246   0.50480    0.84861   1.00
H1       0.07524    0.46909    0.82833   1.00
H1       -0.02008   0.41557    0.84325   1.00
C5       0.00412    0.61952    0.80881   1.00
C5       -0.04943   0.59505    0.82360   1.00
H1       0.16833    0.51542    0.80646   1.00
H1       -0.11337   0.36988    0.86504   1.00
H1       0.11653    0.65726    0.78564   1.00
H1       -0.15234   0.52614    0.85048   1.00
C6       0.01491    0.67520    0.79402   1.00
C6       -0.08847   0.63215    0.82739   1.00
H2       0.02390    0.66155    0.77894   1.00
H2       -0.09433   0.63552    0.84368   1.00
H2       -0.03161   0.67709    0.79164   1.00
H2       -0.05882   0.68565    0.82319   1.00
C6       0.07328    0.74765    0.80058   1.00
C6       -0.15885   0.59916    0.81614   1.00
H2       0.11726    0.74424    0.80584   1.00
H2       -0.18492   0.54375    0.81786   1.00
C6       0.09918    0.80622    0.78449   1.00
C6       -0.20999   0.62345    0.82240   1.00
H2       0.05551    0.76314    0.81387   1.00
H2       -0.14862   0.60843    0.79991   1.00
C6       0.13535    0.79335    0.76646   1.00
C6       -0.23581   0.60231    0.84446   1.00
C6       0.04027    0.81558    0.77628   1.00
C6       -0.17776   0.70170    0.82020   1.00
C6       0.15204    0.87398    0.79478   1.00
C6       -0.27297   0.58892    0.80816   1.00
H2       0.17655    0.78542    0.77178   1.00
H2       -0.25788   0.54743    0.84660   1.00
H2       0.10000    0.74862    0.75775   1.00
H2       -0.19469   0.62813    0.85541   1.00
H2       0.15735    0.83661    0.75605   1.00
H2       -0.27491   0.61526    0.84820   1.00
H2       0.05955    0.85959    0.76619   1.00
H2       -0.21525   0.71749    0.82320   1.00
H2       0.00391    0.77099    0.76768   1.00
H2       -0.13599   0.72853    0.83091   1.00
H2       0.01303    0.82330    0.78871   1.00
H2       -0.15787   0.71812    0.80491   1.00
H2       0.19519    0.87035    0.80067   1.00
H2       -0.29811   0.53344    0.80929   1.00
H2       0.17202    0.91646    0.78409   1.00
H2       -0.31047   0.60398    0.81203   1.00
H2       0.12915    0.88660    0.80741   1.00
H2       -0.25821   0.60300    0.79236   1.00
C4       0.46690    0.50075    0.82038   1.00
C4       0.49674    0.47184    0.83319   1.00
C3       0.49174    0.57225    0.81952   1.00
C3       0.55769    0.51270    0.84440   1.00
C3       0.40994    0.45726    0.80786   1.00
C3       0.46517    0.39938    0.83503   1.00
C2       0.40873    0.55959    0.79373   1.00
C2       0.55530    0.41351    0.85989   1.00
C3       0.46386    0.60093    0.80654   1.00
C3       0.58599    0.48457    0.85743   1.00
C3       0.38325    0.48852    0.79477   1.00
C3       0.49540    0.37277    0.84854   1.00
H1       0.53060    0.60613    0.82844   1.00
H1       0.58420    0.56442    0.84337   1.00
C5       0.38087    0.38466    0.80869   1.00
C5       0.40533    0.35555    0.82347   1.00
H1       0.48427    0.65290    0.80658   1.00
H1       0.62989    0.51681    0.86515   1.00
H1       0.34306    0.45933    0.78554   1.00
H1       0.47418    0.32153    0.85036   1.00
C6       0.32541    0.33982    0.79383   1.00
C6       0.36838    0.27937    0.82718   1.00
H2       0.33917    0.36264    0.77878   1.00
H2       0.36487    0.26997    0.84347   1.00
H2       0.32371    0.29151    0.79141   1.00
H2       0.31492    0.25544    0.82294   1.00
C6       0.25282    0.32544    0.80034   1.00
C6       0.40168    0.24228    0.81593   1.00
H2       0.25602    0.37271    0.80563   1.00
H2       0.45706    0.27174    0.81771   1.00
C6       0.19443    0.29282    0.78418   1.00
C6       0.37753    0.16682    0.82212   1.00
H2       0.23727    0.29204    0.81359   1.00
H2       0.39256    0.24339    0.79970   1.00
C6       0.20735    0.34201    0.76620   1.00
C6       0.39849    0.16198    0.84419   1.00
C6       0.18537    0.22471    0.77593   1.00
C6       0.29933    0.12065    0.81985   1.00
C6       0.12649    0.27759    0.79443   1.00
C6       0.41238    0.13871    0.80788   1.00
H2       0.21507    0.39102    0.77155   1.00
H2       0.45333    0.19490    0.84639   1.00
H2       0.25222    0.35162    0.75753   1.00
H2       0.37245    0.17704    0.85514   1.00
H2       0.16420    0.32076    0.75575   1.00
H2       0.38565    0.10993    0.84789   1.00
H2       0.14149    0.19999    0.76579   1.00
H2       0.28366    0.06736    0.82280   1.00
H2       0.23011    0.23318    0.76736   1.00
H2       0.27229    0.13536    0.83055   1.00
H2       0.17763    0.18965    0.78833   1.00
H2       0.28304    0.12423    0.80455   1.00
H2       0.12992    0.32424    0.80035   1.00
H2       0.46783    0.16916    0.80907   1.00
H2       0.08414    0.25511    0.78369   1.00
H2       0.39743    0.08614    0.81171   1.00
H2       0.11384    0.24196    0.80702   1.00
H2       0.39843    0.13950    0.79208   1.00
C4       0.28992    0.16321    0.34265   1.00
C4       0.34639    0.18788    0.32900   1.00
C3       0.25147    0.19680    0.34533   1.00
C3       0.36385    0.24352    0.31556   1.00
C3       0.27051    0.10276    0.35419   1.00
C3       0.38746    0.15626    0.32855   1.00
C2       0.17366    0.11151    0.36949   1.00
C2       0.46255    0.23998    0.30211   1.00
C3       0.19490    0.17166    0.35826   1.00
C3       0.42032    0.26908    0.30259   1.00
C3       0.21235    0.07863    0.36711   1.00
C3       0.44475    0.18408    0.31519   1.00
H1       0.26355    0.24117    0.33815   1.00
H1       0.33578    0.26712    0.31455   1.00
C5       0.30901    0.06831    0.35277   1.00
C5       0.37072    0.09825    0.34111   1.00
H1       0.16914    0.19811    0.35946   1.00
H1       0.43035    0.30951    0.29332   1.00
H1       0.19669    0.03556    0.37545   1.00
H1       0.47544    0.16327    0.31454   1.00
C6       0.28366    0.00056    0.36339   1.00
C6       0.41867    0.06989    0.34207   1.00
H2       0.22889    -0.03093   0.36098   1.00
H2       0.47093    0.11204    0.34320   1.00
H2       0.30260    -0.02986   0.35617   1.00
H2       0.41322    0.04295    0.35621   1.00
C6       0.30230    0.00810    0.38651   1.00
C6       0.40965    0.02149    0.32388   1.00
H2       0.29249    0.04640    0.39331   1.00
H2       0.40511    0.04411    0.30974   1.00
C6       0.26622    -0.05764   0.39994   1.00
C6       0.46591    0.00139    0.32079   1.00
H2       0.35736    0.02920    0.38771   1.00
H2       0.36061    -0.02526   0.32577   1.00
C6       0.18849    -0.08488   0.40171   1.00
C6       0.53535    0.06385    0.31477   1.00
C6       0.27800    -0.11490   0.39160   1.00
C6       0.47548    -0.03209   0.34006   1.00
C6       0.29675    -0.03948   0.42165   1.00
C6       0.44348    -0.05118   0.30323   1.00
H2       0.17844    -0.04528   0.40725   1.00
H2       0.53010    0.08932    0.30139   1.00
H2       0.16301    -0.10257   0.38714   1.00
H2       0.55623    0.10114    0.32698   1.00
H2       0.16462    -0.12780   0.41222   1.00
H2       0.57292    0.04856    0.31128   1.00
H2       0.25684    -0.15863   0.40184   1.00
H2       0.51121    -0.05030   0.33729   1.00
H2       0.25341    -0.13287   0.37691   1.00
H2       0.49574    0.00428    0.35254   1.00
H2       0.33234    -0.09661   0.38980   1.00
H2       0.42702    -0.07538   0.34487   1.00
H2       0.28914    0.00034    0.42833   1.00
H2       0.43668    -0.02978   0.28917   1.00
H2       0.27280    -0.08378   0.43166   1.00
H2       0.48145    -0.06648   0.30039   1.00
H2       0.35141    -0.02120   0.42145   1.00
H2       0.39533    -0.09713   0.30676   1.00
C4       0.87890    0.70874    0.34307   1.00
C4       0.84920    0.65318    0.32906   1.00
C3       0.92476    0.71347    0.35862   1.00
C3       0.86870    0.60236    0.32826   1.00
C3       0.86260    0.76202    0.34172   1.00
C3       0.79804    0.64746    0.31520   1.00
C2       0.94159    0.82276    0.37078   1.00
C2       0.78681    0.53896    0.30143   1.00
C3       0.95547    0.76884    0.37201   1.00
C3       0.83830    0.54677    0.31495   1.00
C3       0.89527    0.81772    0.35556   1.00
C3       0.76808    0.58987    0.30196   1.00
H1       0.93704    0.67652    0.36094   1.00
H1       0.90621    0.60420    0.33718   1.00
C5       0.81458    0.75866    0.32692   1.00
C5       0.77833    0.69859    0.31470   1.00
H1       0.98832    0.76936    0.38284   1.00
H1       0.85445    0.51171    0.31518   1.00
H1       0.88535    0.85679    0.35499   1.00
H1       0.73121    0.58378    0.29198   1.00
C6       0.80336    0.81874    0.32424   1.00
C6       0.71916    0.68815    0.30150   1.00
H2       0.85256    0.86570    0.32440   1.00
H2       0.67776    0.63569    0.30310   1.00
H2       0.78496    0.82001    0.30911   1.00
H2       0.69553    0.71652    0.30715   1.00
C6       0.75311    0.82051    0.34026   1.00
C6       0.73946    0.70750    0.27872   1.00
H2       0.76534    0.80934    0.35531   1.00
H2       0.77187    0.68719    0.27374   1.00
C6       0.74934    0.88753    0.34186   1.00
C6       0.68036    0.68482    0.26293   1.00
H2       0.70207    0.77837    0.33687   1.00
H2       0.77172    0.76288    0.27787   1.00
C6       0.81715    0.94805    0.34981   1.00
C6       0.63835    0.60609    0.26080   1.00
C6       0.73131    0.90716    0.32120   1.00
C6       0.63191    0.71206    0.26858   1.00
C6       0.69242    0.87559    0.35722   1.00
C6       0.71206    0.71453    0.24188   1.00
H2       0.83188    0.93539    0.36423   1.00
H2       0.67128    0.58515    0.25714   1.00
H2       0.85868    0.96199    0.33910   1.00
H2       0.61117    0.58204    0.27475   1.00
H2       0.81248    0.99323    0.35221   1.00
H2       0.60038    0.59099    0.24878   1.00
H2       0.72401    0.95107    0.32279   1.00
H2       0.59383    0.70014    0.25676   1.00
H2       0.77203    0.92066    0.31020   1.00
H2       0.60467    0.68906    0.28263   1.00
H2       0.68449    0.86487    0.31506   1.00
H2       0.66042    0.76727    0.27059   1.00
H2       0.70308    0.86224    0.37216   1.00
H2       0.74626    0.69625    0.23706   1.00
H2       0.68811    0.92124    0.35896   1.00
H2       0.67271    0.69967    0.23028   1.00
H2       0.64293    0.83427    0.35223   1.00
H2       0.74129    0.77014    0.24229   1.00
C4       0.83025    0.12131    0.34300   1.00
C4       0.80449    0.15114    0.32901   1.00
C3       0.78822    0.07292    0.35792   1.00
C3       0.73375    0.12946    0.32753   1.00
C3       0.90062    0.14007    0.34230   1.00
C3       0.85049    0.20467    0.31585   1.00
C2       0.88150    0.05844    0.37067   1.00
C2       0.75273    0.21368    0.30140   1.00
C3       0.81286    0.04212    0.37128   1.00
C3       0.70857    0.15992    0.31423   1.00
C3       0.92361    0.10724    0.35610   1.00
C3       0.82283    0.23460    0.30260   1.00
H1       0.73828    0.05874    0.35977   1.00
H1       0.69778    0.09027    0.33591   1.00
C5       0.94606    0.19062    0.32819   1.00
C5       0.92190    0.22672    0.31604   1.00
H1       0.77988    0.00740    0.38163   1.00
H1       0.65703    0.14214    0.31395   1.00
H1       0.97318    0.11889    0.35597   1.00
H1       0.85398    0.27311    0.29312   1.00
C6       1.01855    0.20464    0.32614   1.00
C6       0.97087    0.28816    0.30362   1.00
H2       1.01814    0.15632    0.32596   1.00
H2       0.95781    0.32812    0.30540   1.00
H2       1.03972    0.22525    0.31130   1.00
H2       1.02220    0.31259    0.30982   1.00
C6       1.06758    0.25389    0.34289   1.00
C6       0.97349    0.27100    0.28072   1.00
H2       1.04237    0.23919    0.35766   1.00
H2       0.92169    0.23786    0.27512   1.00
C6       1.13931    0.26007    0.34506   1.00
C6       1.01024    0.33222    0.26562   1.00
H2       1.07509    0.30466    0.33991   1.00
H2       0.99839    0.24037    0.27983   1.00
C6       1.13354    0.19238    0.35250   1.00
C6       0.97149    0.37225    0.26349   1.00
C6       1.17950    0.28167    0.32484   1.00
C6       1.08473    0.38187    0.27218   1.00
C6       1.18100    0.31567    0.36114   1.00
C6       1.01204    0.30365    0.24436   1.00
H2       1.10443    0.17515    0.36659   1.00
H2       0.91837    0.33839    0.25919   1.00
H2       1.10837    0.15194    0.34131   1.00
H2       0.97190    0.39731    0.27762   1.00
H2       1.18380    0.19854    0.35531   1.00
H2       0.99480    0.41180    0.25191   1.00
H2       1.23117    0.29057    0.32687   1.00
H2       1.11135    0.42161    0.26082   1.00
H2       1.15473    0.24208    0.31336   1.00
H2       1.08626    0.40701    0.28643   1.00
H2       1.18307    0.32848    0.31905   1.00
H2       1.11276    0.35470    0.27420   1.00
H2       1.15513    0.30250    0.37581   1.00
H2       0.96053    0.26873    0.23891   1.00
H2       1.23148    0.32157    0.36330   1.00
H2       1.03689    0.34454    0.23322   1.00
H2       1.18802    0.36508    0.35655   1.00
H2       1.03998    0.27595    0.24479   1.00
C4       0.82848    0.69992    0.84645   1.00
C4       0.80216    0.64144    0.83355   1.00
C3       0.79206    0.73490    0.85043   1.00
C3       0.73480    0.60964    0.82548   1.00
C3       0.89369    0.72515    0.85582   1.00
C3       0.84406    0.61292    0.82840   1.00
C2       0.88015    0.81615    0.87330   1.00
C2       0.75002    0.52522    0.80668   1.00
C3       0.81683    0.79104    0.86352   1.00
C3       0.70953    0.55352    0.81237   1.00
C3       0.91693    0.78222    0.86914   1.00
C3       0.81652    0.55598    0.81492   1.00
H1       0.74646    0.72132    0.84381   1.00
H1       0.70133    0.62565    0.82898   1.00
C5       0.93400    0.69382    0.85172   1.00
C5       0.91129    0.64095    0.83675   1.00
H1       0.78798    0.81385    0.86583   1.00
H1       0.66059    0.53309    0.80700   1.00
H1       0.96282    0.80134    0.87619   1.00
H1       0.84492    0.53458    0.81079   1.00
C6       0.99946    0.71637    0.86338   1.00
C6       0.95761    0.61496    0.82949   1.00
H2       0.99079    0.72203    0.87934   1.00
H2       0.95390    0.60969    0.81304   1.00
H2       1.01271    0.67643    0.86401   1.00
H2       1.01110    0.65286    0.83149   1.00
C6       1.06154    0.78286    0.85466   1.00
C6       0.94307    0.54702    0.84009   1.00
H2       1.04569    0.82010    0.85119   1.00
H2       0.88806    0.51195    0.84076   1.00
C6       1.12758    0.81929    0.86795   1.00
C6       0.97688    0.50752    0.83073   1.00
H2       1.07502    0.77007    0.84004   1.00
H2       0.95943    0.55889    0.85588   1.00
C6       1.11549    0.84894    0.88771   1.00
C6       0.94799    0.47913    0.80935   1.00
C6       1.15459    0.77053    0.87345   1.00
C6       1.05541    0.55304    0.82939   1.00
C6       1.18382    0.87973    0.85564   1.00
C6       0.96067    0.44585    0.84462   1.00
H2       1.09533    0.88275    0.88436   1.00
H2       0.89247    0.44764    0.80972   1.00
H2       1.07947    0.80875    0.89771   1.00
H2       0.96123    0.52002    0.79846   1.00
H2       1.16286    0.87825    0.89618   1.00
H2       0.96833    0.44774    0.80356   1.00
H2       1.20319    0.79763    0.88146   1.00
H2       1.07887    0.52373    0.82422   1.00
H2       1.11889    0.72949    0.88330   1.00
H2       1.06972    0.59474    0.81870   1.00
H2       1.16218    0.74784    0.85981   1.00
H2       1.07691    0.57485    0.84417   1.00
H2       1.16757    0.91616    0.85154   1.00
H2       0.90570    0.41161    0.84591   1.00
H2       1.23094    0.90713    0.86436   1.00
H2       0.98287    0.41632    0.83863   1.00
H2       1.19565    0.86189    0.84167   1.00
H2       0.98102    0.46271    0.85986   1.00
C4       0.29185    0.12062    0.84328   1.00
C4       0.34951    0.14861    0.83004   1.00
C3       0.23061    0.12075    0.83841   1.00
C3       0.34750    0.17210    0.81014   1.00
C3       0.29466    0.09127    0.86221   1.00
C3       0.41196    0.15360    0.83668   1.00
C2       0.17401    0.06105    0.86961   1.00
C2       0.46706    0.20830    0.80360   1.00
C3       0.17330    0.09160    0.85109   1.00
C3       0.40450    0.20136    0.79733   1.00
C3       0.23506    0.06178    0.87464   1.00
C3       0.46894    0.18407    0.82322   1.00
H1       0.22557    0.14263    0.82555   1.00
H1       0.30435    0.16820    0.80412   1.00
C5       0.35590    0.09220    0.86833   1.00
C5       0.41627    0.12820    0.85623   1.00
H1       0.13059    0.09310    0.84667   1.00
H1       0.39980    0.21755    0.78319   1.00
H1       0.23493    0.04001    0.88814   1.00
H1       0.51435    0.18894    0.82745   1.00
C6       0.35581    0.05461    0.88734   1.00
C6       0.48448    0.14037    0.86391   1.00
H2       0.30936    0.00499    0.88769   1.00
H2       0.52338    0.19281    0.86060   1.00
H2       0.39490    0.04017    0.88679   1.00
H2       0.48606    0.13963    0.88038   1.00
C6       0.36487    0.09604    0.90727   1.00
C6       0.50439    0.08812    0.85532   1.00
H2       0.33257    0.11919    0.90661   1.00
H2       0.49351    0.08109    0.83907   1.00
C6       0.35050    0.05697    0.92791   1.00
C6       0.57960    0.10448    0.85852   1.00
H2       0.41714    0.13884    0.90755   1.00
H2       0.47030    0.03853    0.86217   1.00
C6       0.27418    0.00201    0.93015   1.00
C6       0.63096    0.16876    0.84649   1.00
C6       0.39482    0.02296    0.93037   1.00
C6       0.59961    0.11448    0.88125   1.00
C6       0.36852    0.10893    0.94547   1.00
C6       0.58598    0.04341    0.85051   1.00
H2       0.24144    0.02423    0.92816   1.00
H2       0.61758    0.16376    0.83042   1.00
H2       0.25905    -0.03854   0.91901   1.00
H2       0.63221    0.21450    0.85220   1.00
H2       0.26380    -0.02163   0.94512   1.00
H2       0.68261    0.17700    0.84768   1.00
H2       0.38803    0.00005    0.94537   1.00
H2       0.65031    0.12100    0.88345   1.00
H2       0.38089    -0.01740   0.91921   1.00
H2       0.60050    0.15971    0.88730   1.00
H2       0.44875    0.06032    0.92843   1.00
H2       0.56341    0.07050    0.89013   1.00
H2       0.33804    0.13396    0.94456   1.00
H2       0.57307    0.03459    0.83442   1.00
H2       0.35889    0.08394    0.96023   1.00
H2       0.63786    0.05263    0.85230   1.00
H2       0.42222    0.14836    0.94495   1.00
H2       0.55189    -0.00334   0.85871   1.00
C4       0.87886    0.17007    0.84306   1.00
C4       0.85107    0.19967    0.82971   1.00
C3       0.86998    0.10391    0.83977   1.00
C3       0.81873    0.16839    0.81106   1.00
C3       0.91705    0.20727    0.86046   1.00
C3       0.85541    0.26301    0.83494   1.00
C2       0.93786    0.11151    0.86949   1.00
C2       0.79188    0.25779    0.80317   1.00
C3       0.89880    0.07556    0.85250   1.00
C3       0.78970    0.19628    0.79822   1.00
C3       0.94588    0.17673    0.87298   1.00
C3       0.82488    0.28952    0.82151   1.00
H1       0.84165    0.07356    0.82811   1.00
H1       0.81565    0.12451    0.80601   1.00
C5       0.92530    0.27290    0.86503   1.00
C5       0.88987    0.29833    0.85310   1.00
H1       0.89074    0.02772    0.84925   1.00
H1       0.76687    0.17109    0.78503   1.00
H1       0.97375    0.20180    0.88541   1.00
H1       0.82651    0.33419    0.82478   1.00
C6       0.97181    0.31474    0.88222   1.00
C6       0.88777    0.36144    0.85954   1.00
H2       1.01856    0.31219    0.88154   1.00
H2       0.83609    0.35235    0.85759   1.00
H2       0.99110    0.36894    0.88006   1.00
H2       0.89498    0.36988    0.87580   1.00
C6       0.93710    0.29318    0.90359   1.00
C6       0.94135    0.42762    0.84821   1.00
H2       0.90902    0.23758    0.90476   1.00
H2       0.94129    0.41670    0.83206   1.00
C6       0.98416    0.32201    0.92269   1.00
C6       0.93395    0.49252    0.85022   1.00
H2       0.89837    0.30840    0.90444   1.00
H2       0.99193    0.44040    0.85367   1.00
C6       1.03385    0.29379    0.92440   1.00
C6       0.86798    0.48228    0.83984   1.00
C6       1.02564    0.40097    0.92251   1.00
C6       0.93439    0.51264    0.87270   1.00
C6       0.93856    0.29921    0.94194   1.00
C6       0.99544    0.55290    0.83942   1.00
H2       1.00619    0.23809    0.92423   1.00
H2       0.86559    0.46692    0.82402   1.00
H2       1.07030    0.31141    0.91195   1.00
H2       0.82248    0.44326    0.84748   1.00
H2       1.06309    0.31038    0.93847   1.00
H2       0.86564    0.52925    0.84009   1.00
H2       1.05452    0.42067    0.93655   1.00
H2       0.93413    0.56059    0.87389   1.00
H2       1.06201    0.41967    0.91001   1.00
H2       0.88952    0.47385    0.88068   1.00
H2       0.99193    0.42215    0.92089   1.00
H2       0.97965    0.51877    0.88047   1.00
H2       0.90863    0.24368    0.94291   1.00
H2       0.99709    0.54157    0.82340   1.00
H2       0.96921    0.31777    0.95572   1.00
H2       0.99233    0.59941    0.84029   1.00
H2       0.90321    0.31876    0.94182   1.00
H2       1.04357    0.56356    0.84634   1.00
C4       0.03371    0.50029    0.32032   1.00
C4       -0.02377   0.47528    0.33358   1.00
C3       0.04290    0.45714    0.30651   1.00
C3       -0.07948   0.40716    0.33248   1.00
C3       0.08450    0.57098    0.32071   1.00
C3       -0.02655   0.51940    0.34859   1.00
C2       0.14819    0.55140    0.29280   1.00
C2       -0.13846   0.42366    0.36104   1.00
C3       0.09816    0.48185    0.29308   1.00
C3       -0.13496   0.38192    0.34583   1.00
C3       0.13981    0.59417    0.30671   1.00
C3       -0.08379   0.49160    0.36197   1.00
H1       0.01014    0.40602    0.30582   1.00
H1       -0.08216   0.37352    0.32179   1.00
C5       0.07952    0.61636    0.33487   1.00
C5       0.02663    0.58931    0.34989   1.00
H1       0.10172    0.44815    0.28344   1.00
H1       -0.17339   0.33222    0.34429   1.00
H1       0.17668    0.64416    0.30643   1.00
H1       -0.08736   0.52125    0.37293   1.00
C6       0.12958    0.69218    0.33365   1.00
C6       0.02668    0.63333    0.36718   1.00
H2       0.13635    0.70800    0.31781   1.00
H2       0.01435    0.60422    0.38124   1.00
H2       0.10847    0.72190    0.34005   1.00
H2       0.07769    0.67514    0.37037   1.00
C6       0.19947    0.71354    0.34420   1.00
C6       -0.02191   0.66293    0.36347   1.00
H2       0.21633    0.67754    0.34008   1.00
H2       -0.07053   0.62295    0.35740   1.00
C6       0.25999    0.78726    0.34006   1.00
C6       -0.03768   0.69624    0.38195   1.00
H2       0.19056    0.70750    0.36055   1.00
H2       0.00038    0.70095    0.35140   1.00
C6       0.28329    0.79673    0.31759   1.00
C6       -0.07933   0.64285    0.39854   1.00
C6       0.24116    0.84222    0.34572   1.00
C6       0.02846    0.75444    0.39147   1.00
C6       0.32157    0.79917    0.35337   1.00
C6       -0.08131   0.72725    0.37440   1.00
H2       0.29589    0.75796    0.31302   1.00
H2       -0.12586   0.60048    0.39222   1.00
H2       0.24373    0.79319    0.30743   1.00
H2       -0.04999   0.62196    0.40542   1.00
H2       0.32842    0.84659    0.31517   1.00
H2       -0.09412   0.66558    0.41069   1.00
H2       0.28514    0.89340    0.34416   1.00
H2       0.01678    0.78050    0.40339   1.00
H2       0.20111    0.83909    0.33583   1.00
H2       0.05893    0.73463    0.39828   1.00
H2       0.22321    0.83580    0.36135   1.00
H2       0.05945    0.79203    0.38002   1.00
H2       0.33742    0.76203    0.34982   1.00
H2       -0.12908   0.68804    0.36771   1.00
H2       0.36539    0.84995    0.35092   1.00
H2       -0.09405   0.75079    0.38682   1.00
H2       0.30873    0.79453    0.36947   1.00
H2       -0.05404   0.76638    0.36293   1.00
C4       0.46713    0.96601    0.32042   1.00
C4       0.49955    1.02330    0.33375   1.00
C3       0.41970    0.96027    0.30526   1.00
C3       0.49236    1.08198    0.33148   1.00
C3       0.48204    0.91184    0.32212   1.00
C3       0.54101    1.02284    0.35004   1.00
C2       0.40408    0.85176    0.29281   1.00
C2       0.56235    1.13779    0.36128   1.00
C3       0.38933    0.90512    0.29179   1.00
C3       0.52247    1.13738    0.34486   1.00
C3       0.45031    0.85675    0.30804   1.00
C3       0.57047    1.08012    0.36340   1.00
H1       0.40491    0.99563    0.30357   1.00
H1       0.46554    1.08695    0.31989   1.00
C5       0.52718    0.91337    0.33764   1.00
C5       0.55247    0.96645    0.35259   1.00
H1       0.35574    0.90414    0.28114   1.00
H1       0.51511    1.17805    0.34244   1.00
H1       0.45999    0.81752    0.30868   1.00
H1       0.59989    1.08146    0.37524   1.00
C6       0.54812    0.85948    0.33790   1.00
C6       0.59036    0.96332    0.37111   1.00
H2       0.56001    0.85148    0.32248   1.00
H2       0.57194    0.97764    0.38444   1.00
H2       0.59682    0.87754    0.34546   1.00
H2       0.57677    0.91122    0.37475   1.00
C6       0.49369    0.79098    0.34800   1.00
C6       0.66980    1.00757    0.36899   1.00
H2       0.44284    0.77752    0.34260   1.00
H2       0.68336    1.05718    0.36249   1.00
C6       0.50250    0.72717    0.34515   1.00
C6       0.71354    1.02045    0.38861   1.00
H2       0.49324    0.80029    0.36425   1.00
H2       0.68595    0.98305    0.35775   1.00
C6       0.49281    0.70369    0.32269   1.00
C6       0.70167    1.06483    0.40419   1.00
C6       0.57315    0.74109    0.35267   1.00
C6       0.69844    0.95269    0.39882   1.00
C6       0.44699    0.66742    0.35785   1.00
C6       0.79012    1.05978    0.38263   1.00
H2       0.44381    0.69451    0.31682   1.00
H2       0.71083    1.11261    0.39735   1.00
H2       0.53278    0.74173    0.31305   1.00
H2       0.64970    1.03842    0.41000   1.00
H2       0.49433    0.65652    0.32107   1.00
H2       0.73578    1.07747    0.41718   1.00
H2       0.57693    0.69493    0.35196   1.00
H2       0.73258    0.96210    0.41163   1.00
H2       0.61396    0.77957    0.34332   1.00
H2       0.64636    0.92512    0.40458   1.00
H2       0.58186    0.75908    0.36832   1.00
H2       0.70503    0.91987    0.38805   1.00
H2       0.39596    0.65503    0.35300   1.00
H2       0.80367    1.10850    0.37553   1.00
H2       0.45076    0.62143    0.35624   1.00
H2       0.82283    1.07041    0.39589   1.00
H2       0.45201    0.68039    0.37394   1.00
H2       0.80203    1.03040    0.37195   1.00
C4       0.49892    0.53289    0.32042   1.00
C4       0.52380    0.50047    0.33374   1.00
C3       0.54070    0.58054    0.30531   1.00
C3       0.58977    0.50788    0.33151   1.00
C3       0.42977    0.51777    0.32207   1.00
C3       0.48177    0.45878    0.34998   1.00
C2       0.44773    0.59595    0.29281   1.00
C2       0.57548    0.43765    0.36127   1.00
C3       0.51592    0.61091    0.29184   1.00
C3       0.61506    0.47776    0.34490   1.00
C3       0.40641    0.54951    0.30799   1.00
C3       0.50959    0.42931    0.36334   1.00
H1       0.59089    0.59548    0.30366   1.00
H1       0.62165    0.53488    0.31996   1.00
C5       0.38607    0.47240    0.33753   1.00
C5       0.41383    0.44709    0.35248   1.00
H1       0.54857    0.64466    0.28123   1.00
H1       0.66317    0.48529    0.34251   1.00
H1       0.35745    0.53968    0.30859   1.00
H1       0.48143    0.39973    0.37515   1.00
C6       0.31118    0.45126    0.33773   1.00
C6       0.37267    0.40894    0.37095   1.00
H2       0.29146    0.43947    0.32229   1.00
H2       0.40526    0.42730    0.38432   1.00
H2       0.28057    0.40245    0.34524   1.00
H2       0.33401    0.42235    0.37458   1.00
C6       0.29681    0.50545    0.34786   1.00
C6       0.33770    0.32954    0.36876   1.00
H2       0.33415    0.55639    0.34250   1.00
H2       0.37392    0.31618    0.36228   1.00
C6       0.22413    0.49645    0.34495   1.00
C6       0.30673    0.28558    0.38834   1.00
H2       0.30641    0.50576    0.36411   1.00
H2       0.29713    0.31340    0.35749   1.00
C6       0.21053    0.50631    0.32248   1.00
C6       0.36286    0.29745    0.40396   1.00
C6       0.16746    0.42566    0.35239   1.00
C6       0.25383    0.30037    0.39853   1.00
C6       0.21958    0.55173    0.35768   1.00
C6       0.26973    0.20906    0.38230   1.00
H2       0.25031    0.55541    0.31667   1.00
H2       0.40165    0.28849    0.39714   1.00
H2       0.20882    0.46649    0.31282   1.00
H2       0.38823    0.34935    0.40982   1.00
H2       0.16177    0.50465    0.32084   1.00
H2       0.34133    0.26319    0.41692   1.00
H2       0.11746    0.42173    0.35165   1.00
H2       0.22903    0.26608    0.41130   1.00
H2       0.16536    0.38500    0.34302   1.00
H2       0.27815    0.35239    0.40433   1.00
H2       0.17661    0.41683    0.36805   1.00
H2       0.21448    0.29378    0.38773   1.00
H2       0.25816    0.60285    0.35288   1.00
H2       0.30507    0.19571    0.37520   1.00
H2       0.16977    0.54782    0.35604   1.00
H2       0.24757    0.17620    0.39552   1.00
H2       0.22738    0.54658    0.37377   1.00
H2       0.22852    0.19714    0.37158   1.00
C4       0.16463    0.29896    0.15390   1.00
C4       0.19321    0.35781    0.16668   1.00
C3       0.09494    0.24672    0.15521   1.00
C3       0.15268    0.37205    0.18014   1.00
C3       0.20661    0.29117    0.13917   1.00
C3       0.26497    0.40481    0.16615   1.00
C2       0.10594    0.18159    0.12739   1.00
C2       0.25140    0.47501    0.19325   1.00
C3       0.06629    0.18995    0.14231   1.00
C3       0.18080    0.42864    0.19310   1.00
C3       0.17537    0.23279    0.12626   1.00
C3       0.29165    0.46162    0.17968   1.00
H1       0.06255    0.24761    0.16572   1.00
H1       0.10110    0.34222    0.18088   1.00
C5       0.27780    0.34063    0.13771   1.00
C5       0.30799    0.39472    0.15231   1.00
H1       0.01563    0.15420    0.14398   1.00
H1       0.14884    0.43591    0.20251   1.00
H1       0.20345    0.22571    0.11551   1.00
H1       0.34247    0.49590    0.17986   1.00
C6       0.31991    0.33558    0.12068   1.00
C6       0.38460    0.44070    0.15343   1.00
H2       0.29100    0.32381    0.10659   1.00
H2       0.40034    0.44793    0.16928   1.00
H2       0.36402    0.38485    0.11719   1.00
H2       0.41135    0.41585    0.14742   1.00
C6       0.34438    0.28317    0.12508   1.00
C6       0.41061    0.51051    0.14226   1.00
H2       0.30223    0.23649    0.13144   1.00
H2       0.37750    0.53124    0.14599   1.00
C6       0.37496    0.26245    0.10697   1.00
C6       0.48606    0.56778    0.14616   1.00
H2       0.38261    0.30437    0.13712   1.00
H2       0.40406    0.50024    0.12598   1.00
C6       0.32045    0.22197    0.09053   1.00
C6       0.49705    0.59326    0.16843   1.00
C6       0.43595    0.32553    0.09707   1.00
C6       0.53716    0.54335    0.14103   1.00
C6       0.40119    0.21543    0.11516   1.00
C6       0.50234    0.62946    0.13227   1.00
H2       0.27618    0.17768    0.09710   1.00
H2       0.46096    0.60985    0.17264   1.00
H2       0.30277    0.25343    0.08322   1.00
H2       0.49054    0.55346    0.17899   1.00
H2       0.34100    0.20371    0.07867   1.00
H2       0.54842    0.63632    0.17065   1.00
H2       0.45994    0.31023    0.08544   1.00
H2       0.58970    0.58502    0.14241   1.00
H2       0.41940    0.35807    0.08983   1.00
H2       0.53099    0.50297    0.15132   1.00
H2       0.47446    0.35572    0.10841   1.00
H2       0.52954    0.52380    0.12556   1.00
H2       0.35984    0.16963    0.12214   1.00
H2       0.46806    0.64919    0.13543   1.00
H2       0.42267    0.19918    0.10302   1.00
H2       0.55448    0.67108    0.13455   1.00
H2       0.44088    0.24165    0.12656   1.00
H2       0.49683    0.61502    0.11629   1.00
C4       0.70808    0.87942    0.15669   1.00
C4       0.65254    0.85014    0.17071   1.00
C3       0.70805    0.91660    0.13926   1.00
C3       0.59650    0.86200    0.16947   1.00
C3       0.76625    0.87165    0.15997   1.00
C3       0.65224    0.80731    0.18670   1.00
C2       0.82178    0.94151    0.12886   1.00
C2       0.53858    0.78827    0.19845   1.00
C3       0.76324    0.94704    0.12580   1.00
C3       0.54104    0.83180    0.18284   1.00
C3       0.82155    0.90375    0.14597   1.00
C3       0.59462    0.77723    0.19992   1.00
H1       0.66764    0.92239    0.13557   1.00
H1       0.59419    0.89357    0.15894   1.00
C5       0.76801    0.83236    0.17678   1.00
C5       0.70858    0.79578    0.18923   1.00
H1       0.76017    0.97341    0.11356   1.00
H1       0.50207    0.84219    0.18109   1.00
H1       0.86398    0.89976    0.14787   1.00
H1       0.59232    0.74612    0.21139   1.00
C6       0.83269    0.83062    0.18129   1.00
C6       0.70430    0.74469    0.20483   1.00
H2       0.87625    0.88200    0.17989   1.00
H2       0.65405    0.69917    0.20400   1.00
H2       0.83571    0.81943    0.19717   1.00
H2       0.73734    0.72435    0.20096   1.00
C6       0.84129    0.77844    0.16779   1.00
C6       0.72139    0.77441    0.22689   1.00
H2       0.82857    0.78270    0.15206   1.00
H2       0.69582    0.80364    0.22986   1.00
C6       0.91254    0.78287    0.16786   1.00
C6       0.70408    0.72280    0.24477   1.00
H2       0.80292    0.72717    0.17258   1.00
H2       0.77587    0.81158    0.22746   1.00
C6       0.96843    0.85027    0.15818   1.00
C6       0.62605    0.67477    0.24708   1.00
C6       0.93469    0.77642    0.18960   1.00
C6       0.73896    0.67938    0.24202   1.00
C6       0.90746    0.72303    0.15502   1.00
C6       0.73079    0.76373    0.26482   1.00
H2       0.95381    0.85689    0.14293   1.00
H2       0.59978    0.70390    0.24871   1.00
H2       0.97767    0.89442    0.16718   1.00
H2       0.60450    0.64139    0.23398   1.00
H2       1.01677    0.85081    0.15703   1.00
H2       0.61430    0.64223    0.26041   1.00
H2       0.98199    0.77466    0.18934   1.00
H2       0.73059    0.64709    0.25524   1.00
H2       0.94355    0.81987    0.19892   1.00
H2       0.71854    0.64604    0.22885   1.00
H2       0.89555    0.73006    0.19692   1.00
H2       0.79382    0.71200    0.23993   1.00
H2       0.89263    0.72560    0.13942   1.00
H2       0.70714    0.79481    0.26760   1.00
H2       0.95623    0.72420    0.15450   1.00
H2       0.71948    0.72980    0.27780   1.00
H2       0.86971    0.67390    0.16134   1.00
H2       0.78593    0.79766    0.26428   1.00
C4       0.12131    0.83025    0.15700   1.00
C4       0.15114    0.80449    0.17099   1.00
C3       0.07292    0.78822    0.14208   1.00
C3       0.12947    0.73375    0.17247   1.00
C3       0.14007    0.90062    0.15770   1.00
C3       0.20467    0.85049    0.18415   1.00
C2       0.05844    0.88150    0.12933   1.00
C2       0.21368    0.75272    0.19860   1.00
C3       0.04213    0.81286    0.12872   1.00
C3       0.15993    0.70857    0.18576   1.00
C3       0.10724    0.92361    0.14390   1.00
C3       0.23460    0.82283    0.19740   1.00
H1       0.05874    0.73828    0.14023   1.00
H1       0.09027    0.69778    0.16409   1.00
C5       0.19061    0.94605    0.17181   1.00
C5       0.22672    0.92190    0.18396   1.00
H1       0.00740    0.77988    0.11837   1.00
H1       0.14214    0.65703    0.18605   1.00
H1       0.11888    0.97318    0.14403   1.00
H1       0.27310    0.85398    0.20688   1.00
C6       0.20463    1.01855    0.17387   1.00
C6       0.28815    0.97087    0.19638   1.00
H2       0.15631    1.01814    0.17404   1.00
H2       0.32811    0.95781    0.19460   1.00
H2       0.22524    1.03972    0.18871   1.00
H2       0.31259    1.02220    0.19018   1.00
C6       0.25388    1.06758    0.15712   1.00
C6       0.27099    0.97349    0.21928   1.00
H2       0.23919    1.04237    0.14234   1.00
H2       0.23785    0.92169    0.22488   1.00
C6       0.26006    1.13931    0.15494   1.00
C6       0.33221    1.01023    0.23438   1.00
H2       0.30465    1.07509    0.16009   1.00
H2       0.24036    0.99839    0.22017   1.00
C6       0.19237    1.13353    0.14750   1.00
C6       0.37224    0.97149    0.23652   1.00
C6       0.28166    1.17950    0.17517   1.00
C6       0.38186    1.08473    0.22782   1.00
C6       0.31566    1.18100    0.13887   1.00
C6       0.30363    1.01204    0.25564   1.00
H2       0.17514    1.10443    0.13341   1.00
H2       0.33838    0.91837    0.24082   1.00
H2       0.15193    1.10836    0.15869   1.00
H2       0.39730    0.97190    0.22238   1.00
H2       0.19853    1.18380    0.14469   1.00
H2       0.41179    0.99479    0.24810   1.00
H2       0.29055    1.23116    0.17313   1.00
H2       0.42160    1.11135    0.23918   1.00
H2       0.24207    1.15472    0.18664   1.00
H2       0.40700    1.08625    0.21358   1.00
H2       0.32846    1.18307    0.18096   1.00
H2       0.35468    1.11276    0.22580   1.00
H2       0.30250    1.15513    0.12420   1.00
H2       0.26872    0.96052    0.26109   1.00
H2       0.32156    1.23148    0.13670   1.00
H2       0.34452    1.03688    0.26678   1.00
H2       0.36508    1.18803    0.14346   1.00
H2       0.27593    1.03997    0.25522   1.00
C4       0.96639    0.50005    0.67971   1.00
C4       1.02507    0.52915    0.66686   1.00
C3       0.92341    0.42826    0.68199   1.00
C3       1.04892    0.48889    0.65709   1.00
C3       0.94920    0.54365    0.69080   1.00
C3       1.06200    0.60118    0.66351   1.00
C2       0.84963    0.44118    0.70645   1.00
C2       1.14175    0.58751    0.64009   1.00
C3       0.86699    0.39961    0.69502   1.00
C3       1.10525    0.51701    0.64402   1.00
C3       0.89153    0.51243    0.70399   1.00
C3       1.11887    0.62776    0.65001   1.00
H1       0.93110    0.39408    0.67411   1.00
H1       1.02666    0.43770    0.65926   1.00
C5       0.98886    0.61626    0.68848   1.00
C5       1.04215    0.64467    0.67360   1.00
H1       0.83819    0.34744    0.69604   1.00
H1       1.11972    0.48518    0.63738   1.00
H1       0.87797    0.54174    0.71223   1.00
H1       1.14613    0.67865    0.64713   1.00
C6       0.97451    0.66191    0.70190   1.00
C6       1.07710    0.71971    0.66826   1.00
H2       0.96682    0.64296    0.71742   1.00
H2       1.08251    0.72528    0.65183   1.00
H2       1.01916    0.71227    0.70353   1.00
H2       1.04475    0.74138    0.67144   1.00
C6       0.91319    0.66971    0.69427   1.00
C6       1.14718    0.76323    0.67931   1.00
H2       0.87109    0.61985    0.68977   1.00
H2       1.17622    0.73658    0.67869   1.00
C6       0.88408    0.70283    0.70913   1.00
C6       1.19469    0.83790    0.67166   1.00
H2       0.92920    0.69989    0.68035   1.00
H2       1.13667    0.76526    0.69539   1.00
C6       0.85017    0.65726    0.72798   1.00
C6       1.22105    0.83924    0.64985   1.00
C6       0.94012    0.77447    0.71619   1.00
C6       1.15810    0.88021    0.67223   1.00
C6       0.82839    0.71097    0.69783   1.00
C6       1.25776    0.87298    0.68586   1.00
H2       0.81108    0.60593    0.72350   1.00
H2       1.24619    0.80886    0.64887   1.00
H2       0.88737    0.65280    0.73734   1.00
H2       1.17964    0.81909    0.63885   1.00
H2       0.82592    0.67843    0.73753   1.00
H2       1.25778    0.89117    0.64520   1.00
H2       0.91843    0.79910    0.72536   1.00
H2       1.19307    0.93338    0.66827   1.00
H2       0.97828    0.77117    0.72542   1.00
H2       1.11599    0.86041    0.66145   1.00
H2       0.96579    0.80716    0.70319   1.00
H2       1.13778    0.87892    0.68733   1.00
H2       0.78712    0.66161    0.69270   1.00
H2       1.28590    0.84545    0.68584   1.00
H2       0.80614    0.73354    0.70765   1.00
H2       1.29278    0.92525    0.68104   1.00
H2       0.84953    0.74383    0.68457   1.00
H2       1.24254    0.87487    0.70144   1.00
C4       0.53308    0.03387    0.67962   1.00
C4       0.50323    -0.02489   0.66680   1.00
C3       0.50840    0.08067    0.68042   1.00
C3       0.44241    -0.04483   0.65554   1.00
C3       0.58988    0.04720    0.69220   1.00
C3       0.53465    -0.06593   0.66503   1.00
C2       0.59126    0.15089    0.70627   1.00
C2       0.44466    -0.14178   0.64011   1.00
C3       0.53630    0.13724    0.69340   1.00
C3       0.41411    -0.10126   0.64251   1.00
C3       0.61657    0.10515    0.70528   1.00
C3       0.50442    -0.12277   0.65151   1.00
H1       0.46967    0.07580    0.67146   1.00
H1       0.41601    -0.01949   0.65653   1.00
C5       0.61878    0.00351    0.69143   1.00
C5       0.59434    -0.05007   0.67664   1.00
H1       0.51601    0.16891    0.69332   1.00
H1       0.37032    -0.11280   0.63475   1.00
H1       0.65665    0.11605    0.71455   1.00
H1       0.52553    -0.15289   0.64974   1.00
C6       0.67405    0.01399    0.70634   1.00
C6       0.63115    -0.08947   0.67300   1.00
H2       0.66019    0.02311    0.72137   1.00
H2       0.63479    -0.09538   0.65672   1.00
H2       0.67559    -0.03269   0.70878   1.00
H2       0.68457    -0.06006   0.67729   1.00
C6       0.74677    0.07207    0.69988   1.00
C6       0.59758    -0.15986   0.68426   1.00
H2       0.74375    0.11621    0.69456   1.00
H2       0.54222    -0.18566   0.68243   1.00
C6       0.80499    0.09770    0.71608   1.00
C6       0.62160    -0.21132   0.67812   1.00
H2       0.76236    0.05414    0.68665   1.00
H2       0.60656    -0.14964   0.70049   1.00
C6       0.79204    0.13408    0.73403   1.00
C6       0.60080    -0.23710   0.65604   1.00
C6       0.81378    0.03854    0.72438   1.00
C6       0.69975    -0.17948   0.68046   1.00
C6       0.87308    0.15028    0.70588   1.00
C6       0.58648    -0.27426   0.69236   1.00
H2       0.78450    0.17545    0.72864   1.00
H2       0.54600    -0.25889   0.65380   1.00
H2       0.74705    0.09890    0.74267   1.00
H2       0.62703    -0.19602   0.64510   1.00
H2       0.83508    0.15587    0.74452   1.00
H2       0.61354    -0.27641   0.65238   1.00
H2       0.85757    0.05761    0.73456   1.00
H2       0.71532    -0.21719   0.67755   1.00
H2       0.76893    0.00236    0.73292   1.00
H2       0.72698    -0.13775   0.66976   1.00
H2       0.82155    0.01116    0.71200   1.00
H2       0.71594    -0.15962   0.69577   1.00
H2       0.86985    0.19359    0.69993   1.00
H2       0.53105    -0.29914   0.69112   1.00
H2       0.91533    0.17006    0.71666   1.00
H2       0.60134    -0.31198   0.68857   1.00
H2       0.88577    0.12723    0.69332   1.00
H2       0.60030    -0.25954   0.70817   1.00
C4       0.50075    0.46690    0.67962   1.00
C4       0.47183    0.49674    0.66681   1.00
C3       0.57225    0.49176    0.68049   1.00
C3       0.51269    0.55770    0.65560   1.00
C3       0.45726    0.40992    0.69214   1.00
C3       0.39938    0.46516    0.66497   1.00
C2       0.55959    0.40873    0.70627   1.00
C2       0.41351    0.55530    0.64011   1.00
C3       0.60092    0.46387    0.69346   1.00
C3       0.48456    0.58600    0.64257   1.00
C3       0.48852    0.38324    0.70523   1.00
C3       0.37277    0.49539    0.65145   1.00
H1       0.60613    0.53062    0.67157   1.00
H1       0.56442    0.58421    0.65664   1.00
C5       0.38465    0.38085    0.69131   1.00
C5       0.35555    0.40530    0.67652   1.00
H1       0.65290    0.48429    0.69343   1.00
H1       0.51681    0.62990    0.63485   1.00
H1       0.45932    0.34304    0.71445   1.00
H1       0.32153    0.47416    0.64963   1.00
C6       0.33981    0.32537    0.70616   1.00
C6       0.27937    0.36835    0.67281   1.00
H2       0.36262    0.33912    0.72121   1.00
H2       0.26998    0.36484    0.65652   1.00
H2       0.29150    0.32366    0.70857   1.00
H2       0.25544    0.31489    0.67705   1.00
C6       0.32545    0.25279    0.69965   1.00
C6       0.24226    0.40162    0.68406   1.00
H2       0.37273    0.25600    0.69436   1.00
H2       0.27171    0.45701    0.68228   1.00
C6       0.29282    0.19439    0.71579   1.00
C6       0.16680    0.37747    0.67786   1.00
H2       0.29206    0.23725    0.68639   1.00
H2       0.24336    0.39250    0.70029   1.00
C6       0.34201    0.20730    0.73378   1.00
C6       0.16198    0.39843    0.65579   1.00
C6       0.22471    0.18531    0.72404   1.00
C6       0.12064    0.29926    0.68013   1.00
C6       0.27762    0.12646    0.70555   1.00
C6       0.13867    0.41229    0.69210   1.00
H2       0.39103    0.21503    0.72843   1.00
H2       0.19489    0.45328    0.65360   1.00
H2       0.35160    0.25216    0.74246   1.00
H2       0.17705    0.37241    0.64484   1.00
H2       0.32076    0.16415    0.74423   1.00
H2       0.10992    0.38559    0.65209   1.00
H2       0.19999    0.14141    0.73418   1.00
H2       0.06736    0.28358    0.67718   1.00
H2       0.23316    0.23003    0.73262   1.00
H2       0.13536    0.27224    0.66942   1.00
H2       0.18966    0.17756    0.71164   1.00
H2       0.12421    0.28296    0.69543   1.00
H2       0.32428    0.12990    0.69963   1.00
H2       0.16911    0.46774    0.69092   1.00
H2       0.25513    0.08410    0.71628   1.00
H2       0.08610    0.39733    0.68827   1.00
H2       0.24200    0.11381    0.69295   1.00
H2       0.13945    0.39834    0.70790   1.00
C4       0.50341    0.04342    0.17598   1.00
C4       0.47526    -0.01258   0.16212   1.00
C3       0.56901    0.06886    0.18492   1.00
C3       0.51343    -0.04236   0.15460   1.00
C3       0.46517    0.07578    0.18131   1.00
C3       0.40641    -0.04047   0.15533   1.00
C2       0.56179    0.15880    0.20325   1.00
C2       0.41735    -0.12799   0.13486   1.00
C3       0.59756    0.12498    0.19807   1.00
C3       0.48537    -0.09850   0.14146   1.00
C3       0.49624    0.13304    0.19466   1.00
C3       0.37964    -0.09791   0.14204   1.00
H1       0.59823    0.04712    0.18238   1.00
H1       0.56326    -0.02393   0.15822   1.00
C5       0.39769    0.05067    0.17346   1.00
C5       0.36637    -0.01086   0.16171   1.00
H1       0.64522    0.14102    0.20394   1.00
H1       0.51550    -0.11779   0.13665   1.00
H1       0.47084    0.15768    0.19869   1.00
H1       0.33076    -0.11944   0.13700   1.00
C6       0.36076    0.08975    0.17748   1.00
C6       0.29152    -0.04527   0.15616   1.00
H2       0.39615    0.14401    0.17532   1.00
H2       0.26853    -0.10005   0.15850   1.00
H2       0.32264    0.07980    0.16593   1.00
H2       0.26292    -0.03254   0.16680   1.00
C6       0.32601    0.07468    0.19888   1.00
C6       0.27874    -0.02822   0.13412   1.00
H2       0.36108    0.07486    0.21031   1.00
H2       0.31454    -0.03136   0.12366   1.00
C6       0.29961    0.12285    0.20650   1.00
C6       0.20532    -0.07221   0.12513   1.00
H2       0.28306    0.02248    0.19870   1.00
H2       0.29187    0.02523    0.13389   1.00
C6       0.35915    0.19634    0.21032   1.00
C6       0.18675    -0.14742   0.12188   1.00
C6       0.24860    0.12528    0.19134   1.00
C6       0.15079    -0.07023   0.13885   1.00
C6       0.26196    0.09488    0.22698   1.00
C6       0.20294    -0.04257   0.10410   1.00
H2       0.39667    0.19627    0.22071   1.00
H2       0.22490    -0.15051   0.11251   1.00
H2       0.38534    0.22071    0.19628   1.00
H2       0.18334    -0.17274   0.13623   1.00
H2       0.34069    0.22826    0.21695   1.00
H2       0.13751    -0.17651   0.11432   1.00
H2       0.22682    0.15503    0.19745   1.00
H2       0.10053    -0.09697   0.13176   1.00
H2       0.27372    0.14893    0.17709   1.00
H2       0.14707    -0.09478   0.15339   1.00
H2       0.20688    0.07401    0.18807   1.00
H2       0.16343    -0.01775   0.14173   1.00
H2       0.29601    0.09279    0.23833   1.00
H2       0.24010    -0.04346   0.09374   1.00
H2       0.24292    0.12714    0.23300   1.00
H2       0.15267    -0.07194   0.09714   1.00
H2       0.21844    0.04353    0.22520   1.00
H2       0.21429    0.01012    0.10545   1.00
C4       0.96542    0.46789    0.17937   1.00
C4       1.02241    0.50015    0.16593   1.00
C3       0.96485    0.42949    0.19657   1.00
C3       1.08533    0.50234    0.16990   1.00
C3       0.90625    0.47362    0.17569   1.00
C3       1.01723    0.53178    0.14776   1.00
C2       0.85153    0.40543    0.20713   1.00
C2       1.13658    0.56244    0.13827   1.00
C3       0.90986    0.39946    0.21010   1.00
C3       1.14062    0.53220    0.15647   1.00
C3       0.85147    0.44259    0.18990   1.00
C3       1.07459    0.56131    0.13443   1.00
H1       1.00411    0.42134    0.19979   1.00
H1       1.09358    0.48292    0.18280   1.00
C5       0.90267    0.50920    0.15816   1.00
C5       0.95619    0.53371    0.14336   1.00
H1       0.91271    0.37266    0.22226   1.00
H1       1.18451    0.53187    0.16017   1.00
H1       0.80873    0.44595    0.18788   1.00
H1       1.07269    0.58386    0.12130   1.00
C6       0.84296    0.52109    0.15562   1.00
C6       0.94874    0.56082    0.12310   1.00
H2       0.83232    0.53700    0.17011   1.00
H2       0.96682    0.54057    0.11114   1.00
H2       0.85609    0.56530    0.14617   1.00
H2       0.89551    0.53988    0.11894   1.00
C6       0.77791    0.45787    0.14668   1.00
C6       0.98523    0.64061    0.12234   1.00
H2       0.77000    0.41145    0.15421   1.00
H2       1.03571    0.66231    0.12927   1.00
C6       0.70913    0.45850    0.14759   1.00
C6       0.99402    0.67481    0.10107   1.00
H2       0.78848    0.45232    0.13084   1.00
H2       0.95674    0.65657    0.13210   1.00
C6       0.68462    0.45526    0.16975   1.00
C6       1.04314    0.66375    0.08727   1.00
C6       0.71505    0.52233    0.13701   1.00
C6       0.92468    0.64780    0.09012   1.00
C6       0.65359    0.39444    0.13634   1.00
C6       1.02551    0.75283    0.10416   1.00
H2       0.68099    0.41132    0.17774   1.00
H2       1.09225    0.68130    0.09471   1.00
H2       0.71931    0.50091    0.17822   1.00
H2       1.02214    0.61015    0.08345   1.00
H2       0.63443    0.45095    0.17017   1.00
H2       1.05265    0.69169    0.07304   1.00
H2       0.66569    0.51986    0.13645   1.00
H2       0.93075    0.67539    0.07599   1.00
H2       0.75012    0.56870    0.14516   1.00
H2       0.90246    0.59396    0.08634   1.00
H2       0.73360    0.52660    0.12151   1.00
H2       0.88866    0.65367    0.09970   1.00
H2       0.64686    0.34778    0.14336   1.00
H2       1.07503    0.77464    0.11166   1.00
H2       0.60437    0.39234    0.13668   1.00
H2       1.03307    0.77911    0.08968   1.00
H2       0.66732    0.39447    0.12047   1.00
H2       0.99244    0.76403    0.11346   1.00
C4       0.53291    0.49895    0.17959   1.00
C4       0.50049    0.52384    0.16627   1.00
C3       0.58076    0.54080    0.19464   1.00
C3       0.50811    0.58991    0.16845   1.00
C3       0.51758    0.42972    0.17799   1.00
C3       0.45857    0.48171    0.15008   1.00
C2       0.59599    0.44777    0.20719   1.00
C2       0.43766    0.57552    0.13874   1.00
C3       0.61114    0.51602    0.20811   1.00
C3       0.47799    0.61520    0.15507   1.00
C3       0.54934    0.40637    0.19207   1.00
C3       0.42911    0.50952    0.13671   1.00
H1       0.59585    0.59104    0.19626   1.00
H1       0.53528    0.62187    0.17997   1.00
C5       0.47200    0.38594    0.16258   1.00
C5       0.44667    0.41368    0.14762   1.00
H1       0.64504    0.54873    0.21868   1.00
H1       0.48568    0.66338    0.15742   1.00
H1       0.53937    0.35736    0.19150   1.00
H1       0.39937    0.48130    0.12494   1.00
C6       0.45065    0.31101    0.16244   1.00
C6       0.40827    0.37238    0.12920   1.00
H2       0.43898    0.29144    0.17790   1.00
H2       0.42657    0.40483    0.11580   1.00
H2       0.40176    0.28042    0.15497   1.00
H2       0.42150    0.33359    0.12559   1.00
C6       0.50461    0.29634    0.15229   1.00
C6       0.32890    0.33763    0.13146   1.00
H2       0.55565    0.33363    0.15759   1.00
H2       0.31574    0.37401    0.13792   1.00
C6       0.49543    0.22360    0.15525   1.00
C6       0.28472    0.30655    0.11192   1.00
H2       0.50480    0.30578    0.13603   1.00
H2       0.31277    0.29716    0.14276   1.00
C6       0.50546    0.21018    0.17771   1.00
C6       0.29659    0.36257    0.09626   1.00
C6       0.42450    0.16699    0.14788   1.00
C6       0.29923    0.25342    0.10176   1.00
C6       0.55049    0.21874    0.14249   1.00
C6       0.20827    0.26979    0.11803   1.00
H2       0.55466    0.24993    0.18347   1.00
H2       0.28784    0.40151    0.10306   1.00
H2       0.46579    0.20868    0.18740   1.00
H2       0.34844    0.38776    0.09035   1.00
H2       0.50366    0.16137    0.17939   1.00
H2       0.26220    0.34098    0.08333   1.00
H2       0.42044    0.11693    0.14865   1.00
H2       0.26479    0.22856    0.08902   1.00
H2       0.38399    0.16511    0.15728   1.00
H2       0.35118    0.27755    0.09591   1.00
H2       0.41556    0.17603    0.13222   1.00
H2       0.29263    0.21414    0.11258   1.00
H2       0.60170    0.25728    0.14724   1.00
H2       0.19512    0.30530    0.12511   1.00
H2       0.54645    0.16888    0.14416   1.00
H2       0.17526    0.24757    0.10484   1.00
H2       0.54521    0.22641    0.12639   1.00
H2       0.19634    0.22866    0.12878   1.00
C4       0.71011    0.83650    0.65737   1.00
C4       0.65406    0.80826    0.67122   1.00
C3       0.73697    0.90303    0.64896   1.00
C3       0.62566    0.84704    0.67926   1.00
C3       0.74105    0.79740    0.65151   1.00
C3       0.62471    0.73870    0.67745   1.00
C2       0.82559    0.89495    0.63014   1.00
C2       0.53857    0.75029    0.69845   1.00
C3       0.79314    0.93160    0.63584   1.00
C3       0.56948    0.81897    0.69238   1.00
C3       0.79841    0.82851    0.63820   1.00
C3       0.56729    0.71195    0.69075   1.00
H1       0.71629    0.93296    0.65190   1.00
H1       0.64517    0.89733    0.67605   1.00
C5       0.71446    0.72905    0.65880   1.00
C5       0.65289    0.69793    0.67053   1.00
H1       0.81024    0.97994    0.63036   1.00
H1       0.55123    0.84956    0.69759   1.00
H1       0.82207    0.80250    0.63380   1.00
H1       0.54473    0.66259    0.69541   1.00
C6       0.75206    0.69099    0.65423   1.00
C6       0.61695    0.62258    0.67550   1.00
H2       0.80652    0.72521    0.65648   1.00
H2       0.56231    0.60093    0.67320   1.00
H2       0.74120    0.65166    0.66544   1.00
H2       0.62880    0.59421    0.66452   1.00
C6       0.73637    0.65805    0.63256   1.00
C6       0.63335    0.60729    0.69733   1.00
H2       0.73751    0.69454    0.62149   1.00
H2       0.63116    0.64270    0.70816   1.00
C6       0.78322    0.63072    0.62445   1.00
C6       0.58798    0.53332    0.70579   1.00
H2       0.68374    0.61591    0.63256   1.00
H2       0.68642    0.61916    0.69743   1.00
C6       0.85731    0.68941    0.62088   1.00
C6       0.51328    0.51620    0.70922   1.00
C6       0.78422    0.57770    0.63908   1.00
C6       0.58855    0.47925    0.69152   1.00
C6       0.75472    0.59510    0.60374   1.00
C6       0.61708    0.52832    0.72664   1.00
H2       0.85827    0.72829    0.61086   1.00
H2       0.51120    0.55410    0.71898   1.00
H2       0.88199    0.71407    0.63505   1.00
H2       0.48827    0.51465    0.69496   1.00
H2       0.88835    0.67045    0.61391   1.00
H2       0.48325    0.46646    0.71642   1.00
H2       0.81302    0.55540    0.63262   1.00
H2       0.56082    0.42844    0.69824   1.00
H2       0.80816    0.60128    0.65346   1.00
H2       0.56430    0.47738    0.67707   1.00
H2       0.73253    0.53651    0.64219   1.00
H2       0.64067    0.49092    0.68852   1.00
H2       0.75360    0.63061    0.59275   1.00
H2       0.61714    0.56507    0.73738   1.00
H2       0.78607    0.57549    0.59737   1.00
H2       0.58676    0.47759    0.73325   1.00
H2       0.70291    0.55222    0.60534   1.00
H2       0.66937    0.53855    0.72515   1.00
C4       0.12095    0.29141    0.65687   1.00
C4       0.14880    0.34890    0.67019   1.00
C3       0.12702    0.23275    0.66071   1.00
C3       0.17827    0.34885    0.68928   1.00
C3       0.08560    0.29177    0.63894   1.00
C3       0.14747    0.40912    0.66445   1.00
C2       0.06177    0.17376    0.63048   1.00
C2       0.20814    0.46628    0.69669   1.00
C3       0.09809    0.17553    0.64800   1.00
C3       0.20737    0.40580    0.70211   1.00
C3       0.05656    0.23231    0.62644   1.00
C3       0.17799    0.46615    0.67790   1.00
H1       0.15328    0.22967    0.67279   1.00
H1       0.17909    0.30721    0.69468   1.00
C5       0.08031    0.35050    0.63382   1.00
C5       0.11594    0.41122    0.64581   1.00
H1       0.10404    0.13472    0.65166   1.00
H1       0.22806    0.40260    0.71564   1.00
H1       0.03065    0.23045    0.61364   1.00
H1       0.17846    0.51003    0.67429   1.00
C6       0.03665    0.34743    0.61601   1.00
C6       0.12132    0.47752    0.63892   1.00
H2       -0.01114   0.29900    0.61637   1.00
H2       0.17336    0.51894    0.64130   1.00
H2       0.01886    0.38374    0.61762   1.00
H2       0.11626    0.47895    0.62256   1.00
C6       0.07372    0.35934    0.59506   1.00
C6       0.06797    0.49249    0.64936   1.00
H2       0.10029    0.33022    0.59450   1.00
H2       0.06567    0.48153    0.66558   1.00
C6       0.02922    0.34246    0.57543   1.00
C6       0.07829    0.56584    0.64693   1.00
H2       0.11385    0.41281    0.59438   1.00
H2       0.01762    0.45590    0.64345   1.00
C6       -0.02228   0.26499    0.57357   1.00
C6       0.14381    0.62014    0.65784   1.00
C6       -0.00997   0.38224    0.57472   1.00
C6       0.08132    0.58577    0.62431   1.00
C6       0.07707    0.36381    0.55669   1.00
C6       0.01672    0.56715    0.65682   1.00
H2       0.00370    0.23538    0.57436   1.00
H2       0.14375    0.60695    0.67378   1.00
H2       -0.06020   0.24731    0.58563   1.00
H2       0.18954    0.62494    0.65082   1.00
H2       -0.04971   0.25315    0.55919   1.00
H2       0.14806    0.67028    0.65726   1.00
H2       -0.03692   0.37390    0.56034   1.00
H2       0.08360    0.63486    0.62277   1.00
H2       -0.04777   0.36573    0.58681   1.00
H2       0.12646    0.59018    0.61695   1.00
H2       0.02499    0.43686    0.57643   1.00
H2       0.03641    0.54760    0.61618   1.00
H2       0.10550    0.33657    0.55635   1.00
H2       0.01268    0.55410    0.67290   1.00
H2       0.04824    0.35258    0.54256   1.00
H2       0.02182    0.61758    0.65563   1.00
H2       0.11381    0.41837    0.55691   1.00
H2       -0.03104   0.53078    0.64949   1.00
C4       0.17007    0.87886    0.65694   1.00
C4       0.19967    0.85107    0.67029   1.00
C3       0.10392    0.87000    0.66024   1.00
C3       0.16841    0.81875    0.68894   1.00
C3       0.20726    0.91703    0.63954   1.00
C3       0.26300    0.85540    0.66505   1.00
C2       0.11151    0.93786    0.63051   1.00
C2       0.25779    0.79188    0.69683   1.00
C3       0.07557    0.89882    0.64750   1.00
C3       0.19630    0.78972    0.70178   1.00
C3       0.17672    0.94587    0.62701   1.00
C3       0.28951    0.82486    0.67849   1.00
H1       0.07358    0.84168    0.67190   1.00
H1       0.12454    0.81568    0.69399   1.00
C5       0.27289    0.92527    0.63496   1.00
C5       0.29831    0.88984    0.64689   1.00
H1       0.02774    0.89078    0.65075   1.00
H1       0.17111    0.76690    0.71498   1.00
H1       0.20178    0.97372    0.61458   1.00
H1       0.33417    0.82648    0.67521   1.00
C6       0.31471    0.97175    0.61777   1.00
C6       0.36140    0.88771    0.64045   1.00
H2       0.31218    1.01852    0.61844   1.00
H2       0.35231    0.83602    0.64240   1.00
H2       0.36891    0.99103    0.61992   1.00
H2       0.36983    0.89490    0.62419   1.00
C6       0.29313    0.93703    0.59640   1.00
C6       0.42761    0.94129    0.65177   1.00
H2       0.23753    0.90896    0.59523   1.00
H2       0.41669    0.94124    0.66792   1.00
C6       0.32196    0.98407    0.57730   1.00
C6       0.49248    0.93387    0.64976   1.00
H2       0.30834    0.89829    0.59555   1.00
H2       0.44039    0.99187    0.64631   1.00
C6       0.29375    1.03378    0.57558   1.00
C6       0.48224    0.86790    0.66014   1.00
C6       0.40092    1.02554    0.57747   1.00
C6       0.51259    0.93429    0.62728   1.00
C6       0.29913    0.93846    0.55805   1.00
C6       0.55289    0.99537    0.66055   1.00
H2       0.23805    1.00613    0.57576   1.00
H2       0.46690    0.86553    0.67596   1.00
H2       0.31139    1.07023    0.58804   1.00
H2       0.44321    0.82241    0.65250   1.00
H2       0.31034    1.06300    0.56151   1.00
H2       0.52920    0.86555    0.65990   1.00
H2       0.42060    1.05441    0.56343   1.00
H2       0.56053    0.93401    0.62609   1.00
H2       0.41964    1.06192    0.58997   1.00
H2       0.47379    0.88941    0.61931   1.00
H2       0.42208    0.99182    0.57909   1.00
H2       0.51872    0.97954    0.61950   1.00
H2       0.24360    0.90854    0.55708   1.00
H2       0.54158    0.99703    0.67657   1.00
H2       0.31769    0.96910    0.54426   1.00
H2       0.59939    0.99223    0.65968   1.00
H2       0.31867    0.90310    0.55817   1.00
H2       0.56355    1.04349    0.65363   1.00
