data_IRMOF10_interpen_symm_ligand11cp_label_m_1.

_audit_creation_method             'generated by an auxiliary program of Tobunporous'

_symmetry_space_group_name_H-M     'P 1'
_symmetry_Int_Tables_number        1
_symmetry_cell_setting             triclinic

_cell_length_a                    22.6523
_cell_length_b                    22.6523
_cell_length_c                    65.9502
_cell_angle_alpha                 90.0000
_cell_angle_beta                  90.0000
_cell_angle_gamma                 120.0000

loop_
_atom_site_label
_atom_site_fract_x
_atom_site_fract_y
_atom_site_fract_z
_atom_site_occupancy
O1       0.00000    0.00000    0.57470   1.00
Zn1      0.00000    0.00000    0.54560   1.00
Zn1      0.94843    0.04287    0.58357   1.00
Zn1      0.09443    0.05157    0.58357   1.00
Zn1      0.95713    0.90557    0.58357   1.00
O2       0.93860    0.02610    0.53560   1.00
O2       0.08750    0.06140    0.53560   1.00
O2       0.97390    0.91250    0.53560   1.00
O2       0.91300    0.07160    0.56150   1.00
O2       0.00463    0.12027    0.60077   1.00
O2       0.87413    0.98077    0.60037   1.00
O2       0.15860    0.08700    0.56150   1.00
O2       0.10663    0.12587    0.60037   1.00
O2       0.11563    0.99537    0.60077   1.00
O2       0.92840    0.84140    0.56150   1.00
O2       0.87973    0.88437    0.60077   1.00
O2       0.01923    0.89337    0.60037   1.00
C1       0.91390    0.06020    0.54330   1.00
C1       0.14630    0.08610    0.54330   1.00
C1       0.93980    0.85370    0.54330   1.00
C1       0.06663    0.14397    0.60637   1.00
C1       0.85603    0.92267    0.60637   1.00
C1       0.07733    0.93337    0.60637   1.00
O1       0.00000    0.00000    0.92530   1.00
Zn1      0.00000    0.00000    0.95440   1.00
Zn1      0.04287    0.94843    0.91643   1.00
Zn1      0.05157    0.09443    0.91643   1.00
Zn1      0.90557    0.95713    0.91643   1.00
O2       0.02610    0.93860    0.96440   1.00
O2       0.06140    0.08750    0.96440   1.00
O2       0.91250    0.97390    0.96440   1.00
O2       0.07160    0.91300    0.93850   1.00
O2       0.12027    0.00463    0.89923   1.00
O2       0.98077    0.87413    0.89963   1.00
O2       0.08700    0.15860    0.93850   1.00
O2       0.12587    0.10663    0.89963   1.00
O2       0.99537    0.11563    0.89923   1.00
O2       0.84140    0.92840    0.93850   1.00
O2       0.88437    0.87973    0.89923   1.00
O2       0.89337    0.01923    0.89963   1.00
C1       0.06020    0.91390    0.95670   1.00
C1       0.08610    0.14630    0.95670   1.00
C1       0.85370    0.93980    0.95670   1.00
C1       0.14397    0.06663    0.89363   1.00
C1       0.92267    0.85603    0.89363   1.00
C1       0.93337    0.07733    0.89363   1.00
O1       0.00000    0.00000    0.42530   1.00
Zn1      0.00000    0.00000    0.45440   1.00
Zn1      0.05157    0.95713    0.41643   1.00
Zn1      0.90557    0.94843    0.41643   1.00
Zn1      0.04287    0.09443    0.41643   1.00
O2       0.06140    0.97390    0.46440   1.00
O2       0.91250    0.93860    0.46440   1.00
O2       0.02610    0.08750    0.46440   1.00
O2       0.08700    0.92840    0.43850   1.00
O2       0.99537    0.87973    0.39923   1.00
O2       0.12587    0.01923    0.39963   1.00
O2       0.84140    0.91300    0.43850   1.00
O2       0.89337    0.87413    0.39963   1.00
O2       0.88437    0.00463    0.39923   1.00
O2       0.07160    0.15860    0.43850   1.00
O2       0.12027    0.11563    0.39923   1.00
O2       0.98077    0.10663    0.39963   1.00
C1       0.08610    0.93980    0.45670   1.00
C1       0.85370    0.91390    0.45670   1.00
C1       0.06020    0.14630    0.45670   1.00
C1       0.93337    0.85603    0.39363   1.00
C1       0.14397    0.07733    0.39363   1.00
C1       0.92267    0.06663    0.39363   1.00
O1       0.00000    0.00000    0.07470   1.00
Zn1      0.00000    0.00000    0.04560   1.00
Zn1      0.95713    0.05157    0.08357   1.00
Zn1      0.94843    0.90557    0.08357   1.00
Zn1      0.09443    0.04287    0.08357   1.00
O2       0.97390    0.06140    0.03560   1.00
O2       0.93860    0.91250    0.03560   1.00
O2       0.08750    0.02610    0.03560   1.00
O2       0.92840    0.08700    0.06150   1.00
O2       0.87973    0.99537    0.10077   1.00
O2       0.01923    0.12587    0.10037   1.00
O2       0.91300    0.84140    0.06150   1.00
O2       0.87413    0.89337    0.10037   1.00
O2       0.00463    0.88437    0.10077   1.00
O2       0.15860    0.07160    0.06150   1.00
O2       0.11563    0.12027    0.10077   1.00
O2       0.10663    0.98077    0.10037   1.00
C1       0.93980    0.08610    0.04330   1.00
C1       0.91390    0.85370    0.04330   1.00
C1       0.14630    0.06020    0.04330   1.00
C1       0.85603    0.93337    0.10637   1.00
C1       0.07733    0.14397    0.10637   1.00
C1       0.06663    0.92267    0.10637   1.00
O1       0.66667    0.33333    0.90803   1.00
Zn1      0.66667    0.33333    0.87893   1.00
Zn1      0.61510    0.37620    0.91690   1.00
Zn1      0.76110    0.38490    0.91690   1.00
Zn1      0.62380    0.23890    0.91690   1.00
O2       0.60527    0.35943    0.86893   1.00
O2       0.75417    0.39473    0.86893   1.00
O2       0.64057    0.24583    0.86893   1.00
O2       0.57967    0.40493    0.89483   1.00
O2       0.67130    0.45360    0.93410   1.00
O2       0.54080    0.31410    0.93370   1.00
O2       0.82527    0.42033    0.89483   1.00
O2       0.77330    0.45920    0.93370   1.00
O2       0.78230    0.32870    0.93410   1.00
O2       0.59507    0.17473    0.89483   1.00
O2       0.54640    0.21770    0.93410   1.00
O2       0.68590    0.22670    0.93370   1.00
C1       0.58057    0.39353    0.87663   1.00
C1       0.81297    0.41943    0.87663   1.00
C1       0.60647    0.18703    0.87663   1.00
C1       0.73330    0.47730    0.93970   1.00
C1       0.52270    0.25600    0.93970   1.00
C1       0.74400    0.26670    0.93970   1.00
O1       0.66667    0.33333    0.25863   1.00
Zn1      0.66667    0.33333    0.28773   1.00
Zn1      0.70953    0.28177    0.24977   1.00
Zn1      0.71823    0.42777    0.24977   1.00
Zn1      0.57223    0.29047    0.24977   1.00
O2       0.69277    0.27193    0.29773   1.00
O2       0.72807    0.42083    0.29773   1.00
O2       0.57917    0.30723    0.29773   1.00
O2       0.73827    0.24633    0.27183   1.00
O2       0.78693    0.33797    0.23257   1.00
O2       0.64743    0.20747    0.23297   1.00
O2       0.75367    0.49193    0.27183   1.00
O2       0.79253    0.43997    0.23297   1.00
O2       0.66203    0.44897    0.23257   1.00
O2       0.50807    0.26173    0.27183   1.00
O2       0.55103    0.21307    0.23257   1.00
O2       0.56003    0.35257    0.23297   1.00
C1       0.72687    0.24723    0.29003   1.00
C1       0.75277    0.47963    0.29003   1.00
C1       0.52037    0.27313    0.29003   1.00
C1       0.81063    0.39997    0.22697   1.00
C1       0.58933    0.18937    0.22697   1.00
C1       0.60003    0.41067    0.22697   1.00
O1       0.66667    0.33333    0.75863   1.00
Zn1      0.66667    0.33333    0.78773   1.00
Zn1      0.71823    0.29047    0.74977   1.00
Zn1      0.57223    0.28177    0.74977   1.00
Zn1      0.70953    0.42777    0.74977   1.00
O2       0.72807    0.30723    0.79773   1.00
O2       0.57917    0.27193    0.79773   1.00
O2       0.69277    0.42083    0.79773   1.00
O2       0.75367    0.26173    0.77183   1.00
O2       0.66203    0.21307    0.73257   1.00
O2       0.79253    0.35257    0.73297   1.00
O2       0.50807    0.24633    0.77183   1.00
O2       0.56003    0.20747    0.73297   1.00
O2       0.55103    0.33797    0.73257   1.00
O2       0.73827    0.49193    0.77183   1.00
O2       0.78693    0.44897    0.73257   1.00
O2       0.64743    0.43997    0.73297   1.00
C1       0.75277    0.27313    0.79003   1.00
C1       0.52037    0.24723    0.79003   1.00
C1       0.72687    0.47963    0.79003   1.00
C1       0.60003    0.18937    0.72697   1.00
C1       0.81063    0.41067    0.72697   1.00
C1       0.58933    0.39997    0.72697   1.00
O1       0.66667    0.33333    0.40803   1.00
Zn1      0.66667    0.33333    0.37893   1.00
Zn1      0.62380    0.38490    0.41690   1.00
Zn1      0.61510    0.23890    0.41690   1.00
Zn1      0.76110    0.37620    0.41690   1.00
O2       0.64057    0.39473    0.36893   1.00
O2       0.60527    0.24583    0.36893   1.00
O2       0.75417    0.35943    0.36893   1.00
O2       0.59507    0.42033    0.39483   1.00
O2       0.54640    0.32870    0.43410   1.00
O2       0.68590    0.45920    0.43370   1.00
O2       0.57967    0.17473    0.39483   1.00
O2       0.54080    0.22670    0.43370   1.00
O2       0.67130    0.21770    0.43410   1.00
O2       0.82527    0.40493    0.39483   1.00
O2       0.78230    0.45360    0.43410   1.00
O2       0.77330    0.31410    0.43370   1.00
C1       0.60647    0.41943    0.37663   1.00
C1       0.58057    0.18703    0.37663   1.00
C1       0.81297    0.39353    0.37663   1.00
C1       0.52270    0.26670    0.43970   1.00
C1       0.74400    0.47730    0.43970   1.00
C1       0.73330    0.25600    0.43970   1.00
O1       0.33333    0.66667    0.24137   1.00
Zn1      0.33333    0.66667    0.21227   1.00
Zn1      0.28177    0.70953    0.25023   1.00
Zn1      0.42777    0.71823    0.25023   1.00
Zn1      0.29047    0.57223    0.25023   1.00
O2       0.27193    0.69277    0.20227   1.00
O2       0.42083    0.72807    0.20227   1.00
O2       0.30723    0.57917    0.20227   1.00
O2       0.24633    0.73827    0.22817   1.00
O2       0.33797    0.78693    0.26743   1.00
O2       0.20747    0.64743    0.26703   1.00
O2       0.49193    0.75367    0.22817   1.00
O2       0.43997    0.79253    0.26703   1.00
O2       0.44897    0.66203    0.26743   1.00
O2       0.26173    0.50807    0.22817   1.00
O2       0.21307    0.55103    0.26743   1.00
O2       0.35257    0.56003    0.26703   1.00
C1       0.24723    0.72687    0.20997   1.00
C1       0.47963    0.75277    0.20997   1.00
C1       0.27313    0.52037    0.20997   1.00
C1       0.39997    0.81063    0.27303   1.00
C1       0.18937    0.58933    0.27303   1.00
C1       0.41067    0.60003    0.27303   1.00
O1       0.33333    0.66667    0.59197   1.00
Zn1      0.33333    0.66667    0.62107   1.00
Zn1      0.37620    0.61510    0.58310   1.00
Zn1      0.38490    0.76110    0.58310   1.00
Zn1      0.23890    0.62380    0.58310   1.00
O2       0.35943    0.60527    0.63107   1.00
O2       0.39473    0.75417    0.63107   1.00
O2       0.24583    0.64057    0.63107   1.00
O2       0.40493    0.57967    0.60517   1.00
O2       0.45360    0.67130    0.56590   1.00
O2       0.31410    0.54080    0.56630   1.00
O2       0.42033    0.82527    0.60517   1.00
O2       0.45920    0.77330    0.56630   1.00
O2       0.32870    0.78230    0.56590   1.00
O2       0.17473    0.59507    0.60517   1.00
O2       0.21770    0.54640    0.56590   1.00
O2       0.22670    0.68590    0.56630   1.00
C1       0.39353    0.58057    0.62337   1.00
C1       0.41943    0.81297    0.62337   1.00
C1       0.18703    0.60647    0.62337   1.00
C1       0.47730    0.73330    0.56030   1.00
C1       0.25600    0.52270    0.56030   1.00
C1       0.26670    0.74400    0.56030   1.00
O1       0.33333    0.66667    0.09197   1.00
Zn1      0.33333    0.66667    0.12107   1.00
Zn1      0.38490    0.62380    0.08310   1.00
Zn1      0.23890    0.61510    0.08310   1.00
Zn1      0.37620    0.76110    0.08310   1.00
O2       0.39473    0.64057    0.13107   1.00
O2       0.24583    0.60527    0.13107   1.00
O2       0.35943    0.75417    0.13107   1.00
O2       0.42033    0.59507    0.10517   1.00
O2       0.32870    0.54640    0.06590   1.00
O2       0.45920    0.68590    0.06630   1.00
O2       0.17473    0.57967    0.10517   1.00
O2       0.22670    0.54080    0.06630   1.00
O2       0.21770    0.67130    0.06590   1.00
O2       0.40493    0.82527    0.10517   1.00
O2       0.45360    0.78230    0.06590   1.00
O2       0.31410    0.77330    0.06630   1.00
C1       0.41943    0.60647    0.12337   1.00
C1       0.18703    0.58057    0.12337   1.00
C1       0.39353    0.81297    0.12337   1.00
C1       0.26670    0.52270    0.06030   1.00
C1       0.47730    0.74400    0.06030   1.00
C1       0.25600    0.73330    0.06030   1.00
O1       0.33333    0.66667    0.74137   1.00
Zn1      0.33333    0.66667    0.71227   1.00
Zn1      0.29047    0.71823    0.75023   1.00
Zn1      0.28177    0.57223    0.75023   1.00
Zn1      0.42777    0.70953    0.75023   1.00
O2       0.30723    0.72807    0.70227   1.00
O2       0.27193    0.57917    0.70227   1.00
O2       0.42083    0.69277    0.70227   1.00
O2       0.26173    0.75367    0.72817   1.00
O2       0.21307    0.66203    0.76743   1.00
O2       0.35257    0.79253    0.76703   1.00
O2       0.24633    0.50807    0.72817   1.00
O2       0.20747    0.56003    0.76703   1.00
O2       0.33797    0.55103    0.76743   1.00
O2       0.49193    0.73827    0.72817   1.00
O2       0.44897    0.78693    0.76743   1.00
O2       0.43997    0.64743    0.76703   1.00
C1       0.27313    0.75277    0.70997   1.00
C1       0.24723    0.52037    0.70997   1.00
C1       0.47963    0.72687    0.70997   1.00
C1       0.18937    0.60003    0.77303   1.00
C1       0.41067    0.81063    0.77303   1.00
C1       0.39997    0.58933    0.77303   1.00
C5       0.87121    0.95203    0.50080   1.00
H2       0.84097    0.93970    0.51501   1.00
H2       0.83409    0.93910    0.48822   1.00
C5       0.92475    1.02900    0.50043   1.00
H2       0.90127    1.05951    0.49535   1.00
H2       0.96718    1.03855    0.48996   1.00
O_3      0.95435    0.71391    0.46468   1.00
C4       0.86967    0.69561    0.49815   1.00
C3c      0.85480    0.74877    0.49711   1.00
H1       0.82573    0.75124    0.48446   1.00
C3d      0.90677    0.69277    0.51490   1.00
C3       0.87781    0.79986    0.51210   1.00
O2       0.85431    0.84534    0.51137   1.00
C3       0.93087    0.74429    0.52966   1.00
H1       0.96118    0.74130    0.54185   1.00
C2       0.91693    0.79882    0.52872   1.00
C5       1.00719    0.70025    0.46937   1.00
H2       1.00765    0.66167    0.45897   1.00
H2       1.00240    0.68128    0.48525   1.00
C5       1.07444    0.76655    0.46715   1.00
H2       1.07323    0.80566    0.47712   1.00
H2       1.07897    0.78467    0.45120   1.00
C5       1.13478    0.75678    0.47270   1.00
H2       1.13603    0.71744    0.46290   1.00
H2       1.13155    0.74097    0.48883   1.00
H2       1.18356    0.80540    0.47056   1.00
C5       0.87541    0.58476    0.52512   1.00
C5       0.90078    0.90425    0.50048   1.00
H2       0.82752    0.56201    0.51610   1.00
H2       0.86416    0.59497    0.54080   1.00
H2       0.90543    0.89046    0.48454   1.00
H2       0.95306    0.93003    0.50727   1.00
H2       0.94588    1.04800    0.51592   1.00
H2       0.80622    0.43962    0.51776   1.00
H2       0.81378    0.46059    0.54460   1.00
C2       0.80776    0.54314    0.45189   1.00
C3       0.76298    0.53453    0.46798   1.00
O2       0.70720    0.47130    0.47189   1.00
C3       0.87138    0.60433    0.45100   1.00
H1       0.90606    0.61324    0.43860   1.00
C3a      0.78315    0.58572    0.48291   1.00
H1       0.74994    0.57666    0.49574   1.00
C3b      0.89218    0.65416    0.46622   1.00
C4       0.84805    0.64506    0.48236   1.00
O_3      0.92715    0.64452    0.51586   1.00
C5       0.64731    0.46801    0.46436   1.00
H2       0.63847    0.50764    0.47150   1.00
C5       0.58798    0.39713    0.46957   1.00
H2       0.65016    0.47526    0.44759   1.00
H2       0.57391    0.39710    0.48576   1.00
H2       0.60717    0.36055    0.46838   1.00
C5       0.52546    0.37497    0.45573   1.00
H2       0.51034    0.41470    0.45588   1.00
H2       0.48156    0.32594    0.46105   1.00
H2       0.53639    0.36633    0.43981   1.00
C5       0.90054    0.53380    0.52619   1.00
H2       0.94115    0.55132    0.53796   1.00
H2       0.92481    0.53473    0.51140   1.00
C5       0.84231    0.46110    0.53080   1.00
H2       0.86347    0.42686    0.53355   1.00
C5       0.29865    0.26006    0.58031   1.00
H2       0.25122    0.26241    0.57821   1.00
H2       0.34137    0.31300    0.57814   1.00
C5       0.30023    0.23495    0.60203   1.00
H2       0.31822    0.27756    0.61313   1.00
H2       0.33487    0.21335    0.60259   1.00
O_3      0.41473    0.15145    0.49860   1.00
C4       0.30339    0.17420    0.49787   1.00
C3c      0.30802    0.20972    0.51581   1.00
H1       0.35108    0.26028    0.51813   1.00
C3d      0.24637    0.10877    0.49502   1.00
C3       0.25806    0.18050    0.53109   1.00
O2       0.26166    0.22135    0.54705   1.00
C3       0.19721    0.07902    0.51037   1.00
H1       0.15565    0.02778    0.50781   1.00
C2       0.20149    0.11393    0.52870   1.00
C5       0.39781    0.08629    0.49125   1.00
H2       0.43213    0.08910    0.47870   1.00
H2       0.34421    0.05822    0.48558   1.00
C5       0.40520    0.04676    0.50874   1.00
H2       0.37236    0.04561    0.52149   1.00
H2       0.45903    0.07492    0.51415   1.00
C5       0.38534    -0.02587   0.50222   1.00
H2       0.41761    -0.02509   0.48939   1.00
H2       0.33091    -0.05479   0.49748   1.00
H2       0.39250    -0.05347   0.51507   1.00
C5       0.21079    0.08455    0.46215   1.00
C5       0.29845    0.21408    0.56326   1.00
H2       0.24158    0.13886    0.45746   1.00
H2       0.15846    0.07367    0.46623   1.00
H2       0.35171    0.23068    0.55839   1.00
H2       0.27513    0.16015    0.56865   1.00
H2       0.24813    0.19531    0.60710   1.00
H2       0.23434    0.11353    0.41931   1.00
H2       0.14434    0.06945    0.42590   1.00
C2       0.45742    0.25715    0.45186   1.00
C3       0.40399    0.27221    0.45180   1.00
O2       0.39076    0.29865    0.43466   1.00
C3       0.46034    0.21723    0.46792   1.00
H1       0.50157    0.20627    0.46869   1.00
C3a      0.35429    0.24596    0.46727   1.00
H1       0.31158    0.25469    0.46638   1.00
C3b      0.40964    0.18938    0.48292   1.00
C4       0.35598    0.20352    0.48267   1.00
O_3      0.24200    0.06966    0.47834   1.00
C5       0.41707    0.36942    0.43693   1.00
H2       0.39387    0.38067    0.45026   1.00
C5       0.39940    0.39451    0.41755   1.00
H2       0.47350    0.39669    0.43893   1.00
H2       0.34524    0.38193    0.41851   1.00
H2       0.40247    0.36429    0.40468   1.00
C5       0.44663    0.47149    0.41383   1.00
H2       0.44707    0.50052    0.42748   1.00
H2       0.42872    0.48889    0.40061   1.00
H2       0.49984    0.48366    0.41027   1.00
C5       0.20593    0.03957    0.44433   1.00
H2       0.16595    -0.01388   0.44778   1.00
H2       0.25523    0.04003    0.44310   1.00
C5       0.19025    0.06391    0.42430   1.00
H2       0.18005    0.02609    0.41211   1.00
C5       0.77094    0.08570    0.58405   1.00
H2       0.75918    0.03187    0.58370   1.00
H2       0.72095    0.08366    0.58327   1.00
C5       0.80792    0.11948    0.60411   1.00
H2       0.77070    0.10614    0.61673   1.00
H2       0.83726    0.17591    0.60233   1.00
O_3      0.86971    0.26879    0.49364   1.00
C4       0.82564    0.12911    0.49789   1.00
C3c      0.79677    0.11084    0.51734   1.00
H1       0.75144    0.11332    0.52087   1.00
C3d      0.88415    0.12458    0.49352   1.00
C3       0.82619    0.09013    0.53257   1.00
O2       0.79055    0.06515    0.55039   1.00
C3       0.91431    0.10522    0.50877   1.00
H1       0.96051    0.10483    0.50492   1.00
C2       0.88620    0.08730    0.52859   1.00
C5       0.93288    0.30491    0.48349   1.00
H2       0.93016    0.33347    0.47008   1.00
H2       0.95087    0.26975    0.47821   1.00
C5       0.98433    0.35574    0.49840   1.00
H2       0.98565    0.32740    0.51205   1.00
H2       0.96619    0.39096    0.50343   1.00
C5       1.05534    0.39569    0.48878   1.00
H2       1.05429    0.42373    0.47506   1.00
H2       1.07450    0.36080    0.48440   1.00
H2       1.09190    0.43361    0.49976   1.00
C5       0.88874    0.09291    0.46098   1.00
C5       0.81214    0.11835    0.56476   1.00
H2       0.83406    0.07574    0.45819   1.00
H2       0.89306    0.04834    0.46620   1.00
H2       0.80152    0.15850    0.55904   1.00
H2       0.86804    0.14350    0.56801   1.00
H2       0.84340    0.10103    0.60877   1.00
H2       0.84236    0.07300    0.41941   1.00
H2       0.87665    0.01857    0.42662   1.00
C2       0.74308    0.19979    0.45165   1.00
C3       0.71765    0.12923    0.45420   1.00
O2       0.67931    0.08389    0.43913   1.00
C3       0.79351    0.24552    0.46529   1.00
H1       0.81276    0.29972    0.46408   1.00
C3a      0.74403    0.10626    0.46977   1.00
H1       0.72684    0.05239    0.47079   1.00
C3b      0.82120    0.22267    0.48035   1.00
C4       0.79662    0.15259    0.48266   1.00
O_3      0.91748    0.14687    0.47512   1.00
C5       0.60947    0.05055    0.44425   1.00
H2       0.59951    0.02183    0.45879   1.00
C5       0.57076    0.00061    0.42704   1.00
H2       0.59116    0.08779    0.44576   1.00
H2       0.57514    -0.04584   0.42915   1.00
H2       0.59764    0.02475    0.41261   1.00
C5       0.49522    -0.01853   0.42586   1.00
H2       0.47058    -0.03750   0.44087   1.00
H2       0.46749    -0.05912   0.41433   1.00
H2       0.48991    0.02606    0.42119   1.00
C5       0.92772    0.11935    0.44116   1.00
H2       0.97930    0.12534    0.44307   1.00
H2       0.93529    0.17118    0.43830   1.00
C5       0.88986    0.07191    0.42319   1.00
H2       0.92283    0.08886    0.40949   1.00
C5       0.96491    0.89918    0.00243   1.00
H2       0.95518    0.86551    -0.01088   1.00
H2       0.95556    0.86656    0.01600   1.00
C5       1.03985    0.95804    0.00204   1.00
H2       1.07457    0.94095    0.00825   1.00
H2       1.04528    1.00175    0.01121   1.00
O_3      0.70578    0.96031    0.03267   1.00
C4       0.69565    0.86961    0.00187   1.00
C3c      0.75316    0.86198    0.00406   1.00
H1       0.75911    0.83864    0.01763   1.00
C3d      0.68839    0.89927    -0.01606   1.00
C3       0.80417    0.88503    -0.01096   1.00
O2       0.85457    0.86837    -0.00890   1.00
C3       0.73972    0.92345    -0.03087   1.00
H1       0.73310    0.94803    -0.04403   1.00
C2       0.79858    0.91682    -0.02879   1.00
C5       0.68551    1.00687    0.02610   1.00
H2       0.64501    1.00589    0.03595   1.00
H2       0.66597    0.99578    0.01021   1.00
C5       0.74774    1.07787    0.02697   1.00
H2       0.78889    1.07833    0.01759   1.00
H2       0.76643    1.08865    0.04293   1.00
C5       0.73072    1.13164    0.01936   1.00
H2       0.68934    1.13114    0.02858   1.00
H2       0.71432    1.12230    0.00321   1.00
H2       0.77642    1.18335    0.02053   1.00
C5       0.57828    0.85488    -0.02658   1.00
C5       0.91142    0.92156    0.00119   1.00
H2       0.55976    0.81007    -0.01634   1.00
H2       0.59011    0.84109    -0.04169   1.00
H2       0.89656    0.92884    0.01673   1.00
H2       0.93265    0.97144    -0.00695   1.00
H2       1.05734    0.97558    -0.01382   1.00
H2       0.43350    0.77588    -0.01886   1.00
H2       0.45445    0.77776    -0.04555   1.00
C2       0.54271    0.80756    0.04798   1.00
C3       0.53849    0.76017    0.03331   1.00
O2       0.47819    0.69977    0.03042   1.00
C3       0.59995    0.87421    0.04758   1.00
H1       0.60559    0.91116    0.05891   1.00
C3a      0.58991    0.78059    0.01844   1.00
H1       0.58396    0.74489    0.00663   1.00
C3b      0.64987    0.89499    0.03239   1.00
C4       0.64506    0.84814    0.01763   1.00
O_3      0.63541    0.91262    -0.01829   1.00
C5       0.48145    0.64551    0.03983   1.00
H2       0.52402    0.63969    0.03351   1.00
C5       0.41351    0.58055    0.03566   1.00
H2       0.48891    0.65372    0.05652   1.00
H2       0.41490    0.56283    0.02001   1.00
H2       0.37295    0.59472    0.03576   1.00
C5       0.39728    0.52348    0.05119   1.00
H2       0.44071    0.51377    0.05204   1.00
H2       0.35058    0.47540    0.04670   1.00
H2       0.38714    0.53722    0.06658   1.00
C5       0.52192    0.87234    -0.02911   1.00
H2       0.53571    0.90898    -0.04192   1.00
H2       0.52034    0.89932    -0.01517   1.00
C5       0.45194    0.80839    -0.03273   1.00
H2       0.41359    0.82354    -0.03660   1.00
C5       0.25968    0.29892    -0.08038   1.00
H2       0.26216    0.25156    -0.07830   1.00
H2       0.31260    0.34172    -0.07822   1.00
C5       0.23440    0.30045    -0.10208   1.00
H2       0.27695    0.31853    -0.11320   1.00
H2       0.21269    0.33499    -0.10260   1.00
O_3      0.15114    0.41453    0.00146   1.00
C4       0.17421    0.30339    0.00213   1.00
C3c      0.20965    0.30811    -0.01583   1.00
H1       0.26015    0.35125    -0.01817   1.00
C3d      0.10885    0.24628    0.00501   1.00
C3       0.18042    0.25815    -0.03112   1.00
O2       0.22122    0.26186    -0.04711   1.00
C3       0.07909    0.19711    -0.01035   1.00
H1       0.02791    0.15547    -0.00776   1.00
C2       0.11392    0.20148    -0.02870   1.00
C5       0.08599    0.39746    0.00886   1.00
H2       0.08878    0.43174    0.02142   1.00
H2       0.05804    0.34386    0.01452   1.00
C5       0.04628    0.40475    -0.00860   1.00
H2       0.04513    0.37196    -0.02137   1.00
H2       0.07430    0.45859    -0.01401   1.00
C5       -0.02635   0.38472    -0.00203   1.00
H2       -0.02558   0.41695    0.01081   1.00
H2       -0.05515   0.33029    0.00271   1.00
H2       -0.05409   0.39182    -0.01486   1.00
C5       0.08489    0.21066    0.03788   1.00
C5       0.21375    0.29859    -0.06329   1.00
H2       0.13922    0.24154    0.04254   1.00
H2       0.07411    0.15837    0.03378   1.00
H2       0.23027    0.35183    -0.05841   1.00
H2       0.15978    0.27517    -0.06865   1.00
H2       0.19481    0.24832    -0.10714   1.00
H2       0.11411    0.23423    0.08071   1.00
H2       0.07016    0.14423    0.07411   1.00
C2       0.25715    0.45741    0.04814   1.00
C3       0.27237    0.40408    0.04817   1.00
O2       0.29897    0.39093    0.06528   1.00
C3       0.21707    0.46023    0.03212   1.00
H1       0.20599    0.50138    0.03137   1.00
C3a      0.24611    0.35439    0.03269   1.00
H1       0.25497    0.31176    0.03357   1.00
C3b      0.18922    0.40954    0.01711   1.00
C4       0.20352    0.35598    0.01733   1.00
O_3      0.06980    0.24180    0.02171   1.00
C5       0.36975    0.41739    0.06297   1.00
H2       0.38099    0.39425    0.04962   1.00
C5       0.39504    0.39979    0.08232   1.00
H2       0.39690    0.47382    0.06097   1.00
H2       0.38257    0.34567    0.08135   1.00
H2       0.36485    0.40278    0.09522   1.00
C5       0.47202    0.44716    0.08600   1.00
H2       0.50099    0.44768    0.07234   1.00
H2       0.48956    0.42931    0.09921   1.00
H2       0.48409    0.50033    0.08958   1.00
C5       0.03998    0.20569    0.05573   1.00
H2       -0.01346   0.16562    0.05230   1.00
H2       0.04031    0.25492    0.05698   1.00
C5       0.06450    0.19007    0.07574   1.00
H2       0.02674    0.17978    0.08795   1.00
C5       0.08569    0.77092    -0.08405   1.00
H2       0.03186    0.75917    -0.08369   1.00
H2       0.08364    0.72093    -0.08326   1.00
C5       0.11947    0.80791    -0.10411   1.00
H2       0.10612    0.77068    -0.11673   1.00
H2       0.17590    0.83725    -0.10233   1.00
O_3      0.26879    0.86971    0.00636   1.00
C4       0.12911    0.82564    0.00211   1.00
C3c      0.11084    0.79677    -0.01734   1.00
H1       0.11331    0.75144    -0.02087   1.00
C3d      0.12458    0.88415    0.00648   1.00
C3       0.09012    0.82619    -0.03257   1.00
O2       0.06514    0.79054    -0.05039   1.00
C3       0.10523    0.91431    -0.00877   1.00
H1       0.10484    0.96052    -0.00492   1.00
C2       0.08730    0.88620    -0.02859   1.00
C5       0.30492    0.93288    0.01651   1.00
H2       0.33347    0.93015    0.02991   1.00
H2       0.26975    0.95086    0.02179   1.00
C5       0.35574    0.98432    0.00159   1.00
H2       0.32740    0.98564    -0.01205   1.00
H2       0.39096    0.96618    -0.00343   1.00
C5       0.39570    1.05533    0.01122   1.00
H2       0.42374    1.05428    0.02494   1.00
H2       0.36081    1.07450    0.01560   1.00
H2       0.43362    1.09189    0.00024   1.00
C5       0.09292    0.88875    0.03902   1.00
C5       0.11834    0.81213    -0.06476   1.00
H2       0.07574    0.83407    0.04181   1.00
H2       0.04835    0.89307    0.03380   1.00
H2       0.15849    0.80151    -0.05904   1.00
H2       0.14349    0.86803    -0.06801   1.00
H2       0.10102    0.84339    -0.10877   1.00
H2       0.07301    0.84238    0.08059   1.00
H2       0.01859    0.87667    0.07338   1.00
C2       0.19979    0.74308    0.04835   1.00
C3       0.12923    0.71765    0.04580   1.00
O2       0.08389    0.67931    0.06087   1.00
C3       0.24552    0.79351    0.03471   1.00
H1       0.29972    0.81276    0.03592   1.00
C3a      0.10626    0.74404    0.03023   1.00
H1       0.05239    0.72685    0.02921   1.00
C3b      0.22267    0.82120    0.01965   1.00
C4       0.15259    0.79662    0.01734   1.00
O_3      0.14687    0.91748    0.02488   1.00
C5       0.05055    0.60948    0.05576   1.00
H2       0.02182    0.59951    0.04121   1.00
C5       0.00061    0.57077    0.07297   1.00
H2       0.08778    0.59117    0.05424   1.00
H2       -0.04583   0.57515    0.07086   1.00
H2       0.02475    0.59765    0.08739   1.00
C5       -0.01854   0.49523    0.07414   1.00
H2       -0.03751   0.47059    0.05914   1.00
H2       -0.05912   0.46750    0.08567   1.00
H2       0.02606    0.48992    0.07881   1.00
C5       0.11936    0.92773    0.05884   1.00
H2       0.12536    0.97931    0.05693   1.00
H2       0.17119    0.93530    0.06170   1.00
C5       0.07192    0.88987    0.07681   1.00
H2       0.08888    0.92285    0.09051   1.00
C5       0.08145    0.31360    0.41620   1.00
H2       0.11703    0.29595    0.41136   1.00
H2       0.11079    0.37012    0.41516   1.00
C5       0.01942    0.28423    0.40170   1.00
H2       0.03194    0.31518    0.38758   1.00
H2       -0.02464   0.28388    0.40930   1.00
O_3      0.03680    0.33573    0.51982   1.00
C4       0.13043    0.30382    0.50203   1.00
C3c      0.13293    0.32010    0.48138   1.00
H1       0.15221    0.37250    0.47688   1.00
C3d      0.10604    0.23536    0.50755   1.00
C3       0.10985    0.26933    0.46628   1.00
O2       0.12157    0.29001    0.44634   1.00
C3       0.08181    0.18452    0.49259   1.00
H1       0.06132    0.13244    0.49760   1.00
C2       0.08328    0.19999    0.47165   1.00
C5       -0.00499   0.28740    0.53449   1.00
H2       -0.00286   0.31146    0.54943   1.00
H2       0.01021    0.24800    0.53685   1.00
C5       -0.07792   0.25298    0.52675   1.00
H2       -0.07969   0.23057    0.51156   1.00
H2       -0.09276   0.29267    0.52463   1.00
C5       -0.12667   0.19770    0.54152   1.00
H2       -0.12481   0.21963    0.55676   1.00
H2       -0.11334   0.15682    0.54310   1.00
H2       -0.17991   0.17416    0.53583   1.00
C5       0.15899    0.22221    0.53519   1.00
C5       0.06433    0.29146    0.43837   1.00
H2       0.20136    0.27599    0.53452   1.00
H2       0.17423    0.18966    0.52649   1.00
H2       0.05549    0.32885    0.44694   1.00
H2       0.01650    0.24077    0.43936   1.00
H2       0.00435    0.23122    0.39684   1.00
H2       0.24422    0.27739    0.57066   1.00
H2       0.24599    0.20403    0.56019   1.00
C2       0.19262    0.45475    0.54876   1.00
C3       0.24118    0.44215    0.53931   1.00
O2       0.30420    0.46475    0.54809   1.00
C3       0.12447    0.41895    0.54173   1.00
H1       0.08646    0.42872    0.54829   1.00
C3a      0.22056    0.39344    0.52360   1.00
H1       0.25751    0.38157    0.51731   1.00
C3b      0.10370    0.36898    0.52655   1.00
C4       0.15181    0.35575    0.51738   1.00
O_3      0.09772    0.21596    0.52773   1.00
C5       0.35412    0.52398    0.53815   1.00
H2       0.35767    0.51404    0.52173   1.00
C5       0.42233    0.54502    0.54850   1.00
H2       0.34245    0.56617    0.53947   1.00
H2       0.44223    0.51231    0.54255   1.00
H2       0.41184    0.53283    0.56493   1.00
C5       0.47525    0.62109    0.54550   1.00
H2       0.48107    0.63354    0.52905   1.00
H2       0.52573    0.63311    0.55175   1.00
H2       0.45987    0.65462    0.55365   1.00
C5       0.14705    0.19920    0.55724   1.00
H2       0.11338    0.14277    0.55762   1.00
H2       0.11863    0.22154    0.56475   1.00
C5       0.21436    0.22095    0.56855   1.00
H2       0.20351    0.19734    0.58386   1.00
C5       0.70663    0.73318    0.42100   1.00
H2       0.71515    0.78063    0.41344   1.00
H2       0.65096    0.69681    0.41996   1.00
C5       0.74694    0.70468    0.40969   1.00
H2       0.71861    0.67530    0.39602   1.00
H2       0.75572    0.67071    0.41992   1.00
O_3      0.68586    0.71982    0.52638   1.00
C4       0.69603    0.82654    0.50199   1.00
C3c      0.68336    0.80131    0.48205   1.00
H1       0.63378    0.75910    0.47811   1.00
C3d      0.76068    0.88220    0.50674   1.00
C3       0.73434    0.82923    0.46702   1.00
O2       0.71579    0.80751    0.44735   1.00
C3       0.81195    0.90926    0.49190   1.00
H1       0.86145    0.95033    0.49644   1.00
C2       0.80023    0.88388    0.47173   1.00
C5       0.73554    0.74305    0.54187   1.00
H2       0.71242    0.72591    0.55720   1.00
H2       0.76668    0.79986    0.54197   1.00
C5       0.78188    0.71382    0.53773   1.00
H2       0.80348    0.72935    0.52219   1.00
H2       0.75036    0.65710    0.53787   1.00
C5       0.83911    0.73863    0.55353   1.00
H2       0.81788    0.72371    0.56911   1.00
H2       0.87203    0.79508    0.55293   1.00
H2       0.87154    0.71555    0.55052   1.00
C5       0.75823    0.95510    0.53016   1.00
C5       0.72737    0.75288    0.44316   1.00
H2       0.70220    0.93310    0.52858   1.00
H2       0.78451    0.99932    0.51960   1.00
H2       0.69552    0.70887    0.45334   1.00
H2       0.78180    0.76699    0.44549   1.00
H2       0.79714    0.74674    0.40414   1.00
H2       0.68822    0.98558    0.56146   1.00
H2       0.75333    1.06152    0.54868   1.00
C2       0.54564    0.73893    0.54890   1.00
C3       0.54748    0.78990    0.53615   1.00
O2       0.51350    0.82388    0.54156   1.00
C3       0.59211    0.71565    0.54511   1.00
H1       0.59085    0.67545    0.55427   1.00
C3a      0.59620    0.81741    0.52043   1.00
H1       0.59951    0.85909    0.51154   1.00
C3b      0.64192    0.74464    0.52988   1.00
C4       0.64437    0.79603    0.51742   1.00
O_3      0.77736    0.90556    0.52647   1.00
C5       0.45205    0.79809    0.53056   1.00
H2       0.46173    0.80414    0.51387   1.00
C5       0.41817    0.83896    0.53713   1.00
H2       0.41733    0.74302    0.53395   1.00
H2       0.44332    0.88867    0.52897   1.00
H2       0.42938    0.85089    0.55355   1.00
C5       0.34059    0.80082    0.53331   1.00
H2       0.33015    0.78459    0.51718   1.00
H2       0.31879    0.83425    0.53667   1.00
H2       0.31355    0.75516    0.54337   1.00
C5       0.77866    0.98015    0.55184   1.00
H2       0.83522    1.01237    0.55251   1.00
H2       0.76424    0.93505    0.56173   1.00
C5       0.74425    1.01992    0.55943   1.00
H2       0.76567    1.04337    0.57441   1.00
C5       0.26516    0.97040    0.42065   1.00
H2       0.21731    0.93158    0.41324   1.00
H2       0.30103    0.95050    0.41959   1.00
C5       0.29398    1.03892    0.40916   1.00
H2       0.32279    1.03918    0.39544   1.00
H2       0.32855    1.08184    0.41925   1.00
O_3      0.28139    0.96609    0.52603   1.00
C4       0.17346    0.86950    0.50199   1.00
C3c      0.19810    0.88120    0.48199   1.00
H1       0.23985    0.87314    0.47800   1.00
C3d      0.11838    0.87936    0.50681   1.00
C3       0.17020    0.90426    0.46696   1.00
O2       0.19126    0.90657    0.44724   1.00
C3       0.09135    0.90357    0.49196   1.00
H1       0.05076    0.91269    0.49654   1.00
C2       0.11616    0.91637    0.47172   1.00
C5       0.25907    0.99347    0.54150   1.00
H2       0.27648    0.98772    0.55681   1.00
H2       0.20230    0.96833    0.54173   1.00
C5       0.28892    1.06900    0.53716   1.00
H2       0.27310    1.07482    0.52163   1.00
H2       0.34560    1.09368    0.53715   1.00
C5       0.26511    1.10241    0.55293   1.00
H2       0.28031    1.09638    0.56849   1.00
H2       0.20870    1.07941    0.55246   1.00
H2       0.28863    1.15789    0.54977   1.00
C5       0.04570    0.80519    0.53049   1.00
C5       0.24622    0.97237    0.44284   1.00
H2       0.06711    0.77064    0.52894   1.00
H2       0.00123    0.78733    0.52004   1.00
H2       0.29041    0.98439    0.45293   1.00
H2       0.23276    1.01319    0.44511   1.00
H2       0.25211    1.04744    0.40366   1.00
H2       0.01510    0.70544    0.56204   1.00
H2       -0.06087   0.69507    0.54940   1.00
C2       0.26113    0.80676    0.54890   1.00
C3       0.20951    0.75755    0.53632   1.00
O2       0.17507    0.68976    0.54192   1.00
C3       0.28500    0.87653    0.54493   1.00
H1       0.32569    0.91549    0.55394   1.00
C3a      0.18197    0.77872    0.52060   1.00
H1       0.13982    0.74034    0.51185   1.00
C3b      0.25600    0.89733    0.52970   1.00
C4       0.20397    0.84833    0.51741   1.00
O_3      0.09565    0.87354    0.52659   1.00
C5       0.19996    0.65323    0.53095   1.00
H2       0.19351    0.65644    0.51427   1.00
C5       0.15863    0.57874    0.53774   1.00
H2       0.25503    0.67314    0.53422   1.00
H2       0.10870    0.55438    0.52971   1.00
H2       0.14724    0.57867    0.55418   1.00
C5       0.19596    0.53849    0.53394   1.00
H2       0.21168    0.54361    0.51778   1.00
H2       0.16216    0.48344    0.53747   1.00
H2       0.24184    0.55697    0.54390   1.00
C5       0.02138    0.80152    0.55222   1.00
H2       -0.01034   0.82642    0.55289   1.00
H2       0.06685    0.83214    0.56198   1.00
C5       -0.01883   0.72762    0.56002   1.00
H2       -0.04173   0.72633    0.57504   1.00
C5       0.06178    0.15364    1.00441   1.00
H2       0.02639    0.09802    1.00616   1.00
H2       0.06032    0.16487    0.98807   1.00
C5       0.03663    0.19332    1.01756   1.00
H2       -0.00462   0.19747    1.00968   1.00
H2       0.07965    0.24547    1.02080   1.00
O_3      0.40869    0.26621    0.99667   1.00
C4       0.30367    0.12905    0.99796   1.00
C3c      0.24278    0.12999    0.99490   1.00
H1       0.23397    0.14767    0.98060   1.00
C3d      0.31371    0.10489    1.01660   1.00
C3       0.19292    0.10920    1.01022   1.00
O2       0.13128    0.10364    1.00527   1.00
C3       0.26475    0.08539    1.03202   1.00
H1       0.27577    0.06952    1.04630   1.00
C2       0.20321    0.08673    1.02925   1.00
C5       0.46009    0.28126    1.01121   1.00
H2       0.51176    0.30434    1.00422   1.00
H2       0.45037    0.23444    1.01960   1.00
C5       0.45943    0.33210    1.02612   1.00
H2       0.40726    0.30981    1.03267   1.00
H2       0.46983    0.37887    1.01761   1.00
C5       0.51241    0.34948    1.04294   1.00
H2       0.56458    0.37132    1.03649   1.00
H2       0.50071    0.30322    1.05189   1.00
H2       0.51221    0.38782    1.05343   1.00
C5       0.37250    0.04770    1.01397   1.00
C5       0.13234    0.16505    1.01003   1.00
H2       0.36570    0.04243    0.99724   1.00
H2       0.33027    0.00135    1.02129   1.00
H2       0.17260    0.20802    1.00100   1.00
H2       0.14336    0.17897    1.02642   1.00
H2       0.01439    0.16636    1.03220   1.00
H2       0.45912    0.01163    0.99134   1.00
H2       0.40669    -0.05254   1.00997   1.00
C2       0.46049    0.19878    0.95284   1.00
C3       0.40633    0.13064    0.95255   1.00
O2       0.41154    0.08202    0.94132   1.00
C3       0.45953    0.24350    0.96766   1.00
H1       0.49930    0.29640    0.96796   1.00
C3a      0.35402    0.10846    0.96719   1.00
H1       0.31503    0.05522    0.96748   1.00
C3b      0.40862    0.22075    0.98260   1.00
C4       0.35538    0.15274    0.98248   1.00
O_3      0.37490    0.10778    1.02093   1.00
C5       0.37405    0.06855    0.92314   1.00
H2       0.31896    0.04959    0.92625   1.00
C5       0.38141    0.01362    0.91179   1.00
H2       0.39435    0.11526    0.91357   1.00
H2       0.34556    -0.03685   0.91861   1.00
H2       0.43384    0.02295    0.91473   1.00
C5       0.36852    0.01308    0.88880   1.00
H2       0.31820    0.00915    0.88618   1.00
H2       0.36865    -0.03099   0.88136   1.00
H2       0.40938    0.06011    0.88128   1.00
C5       0.44015    0.05260    1.01939   1.00
H2       0.44153    0.04598    1.03609   1.00
H2       0.48190    0.10511    1.01574   1.00
C5       0.45106    -0.00034   1.00788   1.00
H2       0.49720    -0.00008   1.01374   1.00
C5       0.71442    0.72789    1.07350   1.00
H2       0.75575    0.72989    1.08306   1.00
H2       0.67201    0.67422    1.07413   1.00
C5       0.69135    0.77642    1.08236   1.00
H2       0.65515    0.75176    1.09517   1.00
H2       0.66602    0.79059    1.07038   1.00
O_3      0.73771    0.70054    0.96901   1.00
C4       0.82645    0.69593    0.99804   1.00
C3c      0.79430    0.68780    1.01688   1.00
H1       0.74658    0.64179    1.01996   1.00
C3d      0.88910    0.75584    0.99445   1.00
C3       0.82241    0.73891    1.03187   1.00
O2       0.79253    0.72391    1.05076   1.00
C3       0.91656    0.80739    1.00919   1.00
H1       0.96346    0.85346    1.00547   1.00
C2       0.88434    0.80032    1.02824   1.00
C5       0.77262    0.74892    0.95358   1.00
H2       0.75898    0.72588    0.93814   1.00
H2       0.82898    0.77310    0.95547   1.00
C5       0.75255    0.80352    0.95516   1.00
H2       0.76441    0.82523    0.97077   1.00
H2       0.69629    0.77892    0.95307   1.00
C5       0.79026    0.85971    0.93932   1.00
H2       0.77902    0.83832    0.92369   1.00
H2       0.84633    0.88590    0.94183   1.00
H2       0.77381    0.89836    0.94041   1.00
C5       0.96290    0.73986    0.97482   1.00
C5       0.74377    0.74539    1.05200   1.00
H2       0.93315    0.68353    0.97668   1.00
H2       1.00320    0.76159    0.98675   1.00
H2       0.70259    0.71768    1.04058   1.00
H2       0.76643    0.80124    1.04905   1.00
H2       0.73556    0.82377    1.08865   1.00
H2       0.99014    0.65784    0.94698   1.00
H2       1.06465    0.71619    0.96170   1.00
C2       0.73974    0.54581    0.95103   1.00
C3       0.78122    0.54044    0.96606   1.00
O2       0.80810    0.49822    0.96316   1.00
C3       0.72517    0.59957    0.95254   1.00
H1       0.69217    0.60406    0.94158   1.00
C3a      0.80834    0.58925    0.98177   1.00
H1       0.84312    0.58669    0.99249   1.00
C3b      0.75398    0.64926    0.96780   1.00
C4       0.79605    0.64447    0.98256   1.00
O_3      0.92017    0.76858    0.97563   1.00
C5       0.77057    0.43734    0.97430   1.00
H2       0.77149    0.44789    0.99088   1.00
C5       0.80410    0.39404    0.97058   1.00
H2       0.71647    0.40881    0.96914   1.00
H2       0.85002    0.41352    0.98043   1.00
H2       0.82275    0.40299    0.95462   1.00
C5       0.75540    0.31739    0.97441   1.00
H2       0.73311    0.30994    0.98985   1.00
H2       0.78307    0.28843    0.97321   1.00
H2       0.71350    0.29510    0.96291   1.00
C5       0.99683    0.75621    0.95405   1.00
H2       1.03553    0.81152    0.95356   1.00
H2       0.95749    0.74735    0.94244   1.00
C5       1.02966    0.71244    0.94928   1.00
H2       1.05986    0.73056    0.93505   1.00
C5       0.96905    0.26441    1.07950   1.00
H2       0.93028    0.21639    1.08684   1.00
H2       0.94890    0.30007    1.08056   1.00
C5       1.03744    0.29338    1.09107   1.00
H2       1.03736    0.32194    1.10481   1.00
H2       1.08042    0.32821    1.08105   1.00
O_3      0.96611    0.28192    0.97413   1.00
C4       0.86950    0.17346    0.99801   1.00
C3c      0.88082    0.19784    1.01803   1.00
H1       0.87247    0.23938    1.02205   1.00
C3d      0.87975    0.11864    0.99316   1.00
C3       0.90389    0.16995    1.03307   1.00
O2       0.90581    0.19071    1.05280   1.00
C3       0.90396    0.09162    1.00801   1.00
H1       0.91339    0.05125    1.00341   1.00
C2       0.91638    0.11617    1.02828   1.00
C5       0.99389    0.26000    0.95867   1.00
H2       0.98825    0.27753    0.94336   1.00
H2       0.96899    0.20325    0.95838   1.00
C5       1.06940    0.29011    0.96310   1.00
H2       1.07510    0.27418    0.97862   1.00
H2       1.09384    0.34677    0.96316   1.00
C5       1.10325    0.26675    0.94734   1.00
H2       1.09734    0.28208    0.93178   1.00
H2       1.08048    0.21036    0.94775   1.00
H2       1.15870    0.29046    0.95057   1.00
C5       0.80609    0.04606    0.96937   1.00
C5       0.97143    0.24582    1.05730   1.00
H2       0.77132    0.06721    0.97090   1.00
H2       0.78828    0.00148    0.97977   1.00
H2       0.98340    0.29008    1.04725   1.00
H2       1.01246    0.23264    1.05505   1.00
H2       1.04613    0.25159    1.09655   1.00
H2       0.70669    0.01541    0.93771   1.00
H2       0.69652    -0.06057   0.95028   1.00
C2       0.80678    0.26116    0.95111   1.00
C3       0.75754    0.20926    0.96360   1.00
O2       0.68983    0.17462    0.95792   1.00
C3       0.87655    0.28529    0.95515   1.00
H1       0.91552    0.32618    0.94620   1.00
C3a      0.77869    0.18170    0.97933   1.00
H1       0.74032    0.13935    0.98801   1.00
C3b      0.89735    0.25628    0.97038   1.00
C4       0.84833    0.20397    0.98259   1.00
O_3      0.87431    0.09619    0.97336   1.00
C5       0.65292    0.19911    0.96887   1.00
H2       0.65594    0.19248    0.98555   1.00
C5       0.57855    0.15757    0.96199   1.00
H2       0.67263    0.25418    0.96566   1.00
H2       0.55428    0.10754    0.96997   1.00
H2       0.57877    0.14642    0.94554   1.00
C5       0.53794    0.19454    0.96577   1.00
H2       0.54276    0.21005    0.98196   1.00
H2       0.48297    0.16059    0.96218   1.00
H2       0.55636    0.24053    0.95587   1.00
C5       0.80285    0.02206    0.94762   1.00
H2       0.82799    -0.00943   0.94695   1.00
H2       0.83345    0.06770    0.93791   1.00
C5       0.72908    -0.01833   0.93972   1.00
H2       0.72811    -0.04098   0.92469   1.00
C5       0.63709    1.03858    0.91268   1.00
H2       0.68583    1.08689    0.91027   1.00
H2       0.64879    0.99698    0.91019   1.00
C5       0.61202    1.03629    0.93466   1.00
H2       0.63872    1.01960    0.94541   1.00
H2       0.55613    1.00030    0.93564   1.00
O_3      0.40511    0.91589    0.83281   1.00
C4       0.53746    1.02995    0.83119   1.00
C3c      0.57070    1.02667    0.84878   1.00
H1       0.58006    0.98468    0.85082   1.00
C3d      0.52664    1.08561    0.82870   1.00
C3       0.59145    1.07660    0.86407   1.00
O2       0.63094    1.07453    0.87962   1.00
C3       0.54606    1.13470    0.84407   1.00
H1       0.53453    1.17515    0.84181   1.00
C2       0.57907    1.13176    0.86205   1.00
C5       0.35479    0.93073    0.82604   1.00
H2       0.32279    0.89581    0.81367   1.00
H2       0.37832    0.98421    0.82036   1.00
C5       0.30897    0.92198    0.84398   1.00
H2       0.34121    0.95546    0.85655   1.00
H2       0.28527    0.86827    0.84940   1.00
C5       0.25401    0.93956    0.83811   1.00
H2       0.22192    0.90663    0.82546   1.00
H2       0.27759    0.99385    0.83336   1.00
H2       0.22011    0.93141    0.85128   1.00
C5       0.53387    1.12064    0.79589   1.00
C5       0.58895    1.03700    0.89611   1.00
H2       0.55844    1.09120    0.79082   1.00
H2       0.57455    1.17352    0.79979   1.00
H2       0.55310    0.98337    0.89138   1.00
H2       0.55751    1.05887    0.90192   1.00
H2       0.62333    1.08793    0.93984   1.00
H2       0.53623    1.09730    0.75290   1.00
H2       0.58037    1.18736    0.75943   1.00
C2       0.46633    0.87577    0.78523   1.00
C3       0.53409    0.93066    0.78470   1.00
O2       0.57235    0.94489    0.76722   1.00
C3       0.42437    0.87154    0.80172   1.00
H1       0.37283    0.82922    0.80284   1.00
C3a      0.55761    0.98043    0.80016   1.00
H1       0.60833    1.02417    0.79892   1.00
C3b      0.44722    0.92227    0.81671   1.00
C4       0.51424    0.97735    0.81600   1.00
O_3      0.48961    1.08852    0.81241   1.00
C5       0.61869    0.92065    0.76890   1.00
H2       0.65415    0.94477    0.78197   1.00
C5       0.65975    0.93933    0.74917   1.00
H2       0.59122    0.86423    0.77094   1.00
H2       0.70021    0.99399    0.74994   1.00
H2       0.62481    0.93501    0.73663   1.00
C5       0.69131    0.89397    0.74492   1.00
H2       0.72166    0.89468    0.75826   1.00
H2       0.72535    0.91268    0.73141   1.00
H2       0.65113    0.84025    0.74154   1.00
C5       0.49125    1.12382    0.77853   1.00
H2       0.47647    1.16263    0.78230   1.00
H2       0.44321    1.07368    0.77758   1.00
C5       0.52952    1.14045    0.75816   1.00
H2       0.49995    1.14937    0.74631   1.00
C5       -0.01852   0.56227    0.91739   1.00
H2       -0.06057   0.57406    0.91704   1.00
H2       0.02945    0.61224    0.91661   1.00
C5       -0.02175   0.52523    0.93744   1.00
H2       0.00216    0.56243    0.95006   1.00
H2       0.00532    0.49587    0.93566   1.00
O_3      0.06569    0.46354    0.82695   1.00
C4       -0.02987   0.50769    0.83122   1.00
C3c      -0.01925   0.53653    0.85068   1.00
H1       0.02859    0.58184    0.85420   1.00
C3d      -0.09293   0.44921    0.82685   1.00
C3       -0.06937   0.50711    0.86591   1.00
O2       -0.05869   0.54273    0.88373   1.00
C3       -0.14244   0.41905    0.84210   1.00
H1       -0.18905   0.37287    0.83824   1.00
C2       -0.13224   0.44713    0.86192   1.00
C5       0.03860    0.40039    0.81679   1.00
H2       0.06987    0.40312    0.80338   1.00
H2       -0.01454   0.38244    0.81151   1.00
C5       0.03795    0.34890    0.83170   1.00
H2       0.00830    0.34757    0.84535   1.00
H2       0.09131    0.36700    0.83671   1.00
C5       0.00685    0.27791    0.82205   1.00
H2       0.03593    0.27895    0.80833   1.00
H2       -0.04719   0.25878    0.81768   1.00
H2       0.00819    0.24131    0.83303   1.00
C5       -0.12918   0.44470    0.79431   1.00
C5       -0.02710   0.52108    0.89809   1.00
H2       -0.09164   0.49938    0.79153   1.00
H2       -0.17805   0.44040    0.79954   1.00
H2       0.02366    0.53168    0.89237   1.00
H2       -0.05788   0.46518    0.90133   1.00
H2       -0.07568   0.48977    0.94210   1.00
H2       -0.10270   0.49114    0.75275   1.00
H2       -0.19140   0.45689    0.75996   1.00
C2       0.12338    0.59025    0.78498   1.00
C3       0.07828    0.61572    0.78754   1.00
O2       0.07131    0.65410    0.77248   1.00
C3       0.11865    0.53978    0.79861   1.00
H1       0.15357    0.52050    0.79739   1.00
C3a      0.02893    0.58933    0.80311   1.00
H1       -0.00772   0.60655    0.80414   1.00
C3b      0.06811    0.51209    0.81367   1.00
C4       0.02264    0.53671    0.81599   1.00
O_3      -0.10398   0.41591    0.80844   1.00
C5       0.10784    0.72393    0.77760   1.00
H2       0.08910    0.73388    0.79215   1.00
C5       0.09664    0.76269    0.76040   1.00
H2       0.16338    0.74220    0.77912   1.00
H2       0.04583    0.75834    0.76252   1.00
H2       0.09388    0.73583    0.74597   1.00
C5       0.15307    0.83822    0.75924   1.00
H2       0.15876    0.86284    0.77425   1.00
H2       0.14024    0.86598    0.74771   1.00
H2       0.20296    0.84350    0.75456   1.00
C5       -0.14174   0.40575    0.77448   1.00
H2       -0.18735   0.35417    0.77639   1.00
H2       -0.09750   0.39815    0.77161   1.00
C5       -0.15129   0.44366    0.75652   1.00
H2       -0.16734   0.41070    0.74281   1.00
C5       0.43644    0.41744    0.91729   1.00
H2       0.42498    0.36371    0.91687   1.00
H2       0.38632    0.41511    0.91646   1.00
C5       0.47304    0.45102    0.93741   1.00
H2       0.43560    0.43729    0.94999   1.00
H2       0.50214    0.50748    0.93572   1.00
O_3      0.53572    0.60203    0.82715   1.00
C4       0.49232    0.46244    0.83122   1.00
C3c      0.46319    0.44374    0.85063   1.00
H1       0.41765    0.44587    0.85412   1.00
C3d      0.55110    0.45835    0.82689   1.00
C3       0.49259    0.42302    0.86586   1.00
O2       0.45674    0.39761    0.88362   1.00
C3       0.58124    0.43900    0.84215   1.00
H1       0.62765    0.43896    0.83833   1.00
C2       0.55287    0.42064    0.86192   1.00
C5       0.59901    0.63859    0.81708   1.00
H2       0.59630    0.66726    0.80371   1.00
H2       0.61734    0.60373    0.81178   1.00
C5       0.65008    0.68933    0.83209   1.00
H2       0.65138    0.66087    0.84571   1.00
H2       0.63159    0.72426    0.83714   1.00
C5       0.72120    0.72976    0.82256   1.00
H2       0.72018    0.75793    0.80887   1.00
H2       0.74070    0.69517    0.81816   1.00
H2       0.75748    0.76761    0.83361   1.00
C5       0.55638    0.42734    0.79432   1.00
C5       0.47786    0.45056    0.89807   1.00
H2       0.50167    0.40993    0.79147   1.00
H2       0.56091    0.38285    0.79950   1.00
H2       0.46704    0.49061    0.89238   1.00
H2       0.53373    0.47591    0.90138   1.00
H2       0.50867    0.43277    0.94208   1.00
H2       0.51059    0.40787    0.75270   1.00
H2       0.54522    0.35371    0.75988   1.00
C2       0.40975    0.53314    0.78499   1.00
C3       0.38463    0.46260    0.78744   1.00
O2       0.34668    0.41741    0.77230   1.00
C3       0.45985    0.57882    0.79872   1.00
H1       0.47884    0.63299    0.79757   1.00
C3a      0.41102    0.43961    0.80301   1.00
H1       0.39409    0.38579    0.80397   1.00
C3b      0.48754    0.55597    0.81377   1.00
C4       0.46329    0.48591    0.81599   1.00
O_3      0.58466    0.48108    0.80854   1.00
C5       0.27676    0.38366    0.77732   1.00
H2       0.26673    0.35473    0.79183   1.00
C5       0.23849    0.33391    0.76003   1.00
H2       0.25814    0.42064    0.77886   1.00
H2       0.24314    0.28761    0.76210   1.00
H2       0.26552    0.35838    0.74565   1.00
C5       0.16286    0.31438    0.75878   1.00
H2       0.13804    0.29508    0.77374   1.00
H2       0.13546    0.27394    0.74718   1.00
H2       0.15733    0.35888    0.75415   1.00
C5       0.59560    0.45426    0.77456   1.00
H2       0.64728    0.46052    0.77652   1.00
H2       0.60292    0.50602    0.77176   1.00
C5       0.55819    0.40702    0.75651   1.00
H2       0.59136    0.42435    0.74285   1.00
C5       0.65288    0.39469    0.33809   1.00
H2       0.66760    0.35771    0.33239   1.00
H2       0.65671    0.39409    0.35488   1.00
C5       0.70292    0.46656    0.32970   1.00
H2       0.75067    0.49153    0.33882   1.00
H2       0.67877    0.49896    0.33006   1.00
O_3      0.30659    0.28493    0.34595   1.00
C4       0.36267    0.20281    0.33531   1.00
C3c      0.43236    0.24127    0.34005   1.00
H1       0.44804    0.25441    0.35566   1.00
C3d      0.34335    0.18540    0.31490   1.00
C3       0.48268    0.26412    0.32482   1.00
O2       0.54979    0.29422    0.33081   1.00
C3       0.39327    0.20918    0.29966   1.00
H1       0.37590    0.19659    0.28416   1.00
C2       0.46393    0.24875    0.30417   1.00
C5       0.25752    0.28033    0.33186   1.00
H2       0.20780    0.26598    0.33921   1.00
H2       0.24823    0.24194    0.31983   1.00
C5       0.28508    0.34999    0.32209   1.00
H2       0.33567    0.36518    0.31523   1.00
H2       0.29356    0.38777    0.33420   1.00
C5       0.23574    0.34890    0.30596   1.00
H2       0.18496    0.33331    0.31268   1.00
H2       0.22908    0.31293    0.29350   1.00
H2       0.25603    0.40060    0.29931   1.00
C5       0.24850    0.08100    0.31063   1.00
C5       0.57841    0.36578    0.33173   1.00
H2       0.25061    0.06525    0.32647   1.00
H2       0.27650    0.06359    0.30060   1.00
H2       0.55075    0.37927    0.34316   1.00
H2       0.57547    0.38808    0.31687   1.00
H2       0.71854    0.46382    0.31379   1.00
H2       0.12784    -0.03542   0.32676   1.00
H2       0.16131    -0.05620   0.30451   1.00
C2       0.20704    0.13839    0.38065   1.00
C3       0.23699    0.09809    0.37632   1.00
O2       0.20598    0.03106    0.38262   1.00
C3       0.23204    0.20139    0.37043   1.00
H1       0.21140    0.23423    0.37378   1.00
C3a      0.28934    0.12044    0.36169   1.00
H1       0.30904    0.08722    0.35771   1.00
C3b      0.28257    0.22243    0.35542   1.00
C4       0.31157    0.18183    0.35090   1.00
O_3      0.27537    0.15210    0.30927   1.00
C5       0.23914    0.02516    0.39997   1.00
H2       0.29398    0.04299    0.39681   1.00
C5       0.20265    -0.05042   0.40576   1.00
H2       0.23602    0.05543    0.41283   1.00
H2       0.22130    -0.07702   0.39565   1.00
H2       0.14748    -0.07201   0.40229   1.00
C5       0.21277    -0.06227   0.42822   1.00
H2       0.26813    -0.03580   0.43180   1.00
H2       0.19044    -0.11768   0.43142   1.00
H2       0.18663    -0.04338   0.43855   1.00
C5       0.17426    0.04661    0.30396   1.00
H2       0.17277    0.05270    0.28723   1.00
H2       0.15042    0.07432    0.31103   1.00
C5       0.13462    -0.02921   0.30998   1.00
H2       0.08296    -0.05423   0.30306   1.00
C5       0.59643    0.37177    0.33494   1.00
H2       0.57415    0.38228    0.32136   1.00
H2       0.57283    0.38209    0.34824   1.00
C5       0.57830    0.29619    0.33478   1.00
H2       0.52580    0.26260    0.34069   1.00
H2       0.61513    0.28958    0.34432   1.00
O_3      0.91736    0.62517    0.36677   1.00
C4       0.84066    0.63769    0.33519   1.00
C3c      0.77462    0.58134    0.33708   1.00
H1       0.74462    0.57632    0.35041   1.00
C3d      0.87851    0.64378    0.31758   1.00
C3       0.74663    0.53030    0.32207   1.00
O2       0.67893    0.48123    0.32378   1.00
C3       0.85130    0.59239    0.30278   1.00
H1       0.88315    0.59805    0.28987   1.00
C2       0.78488    0.53468    0.30456   1.00
C5       0.98422    0.64363    0.36071   1.00
H2       1.02364    0.68360    0.37071   1.00
H2       0.99430    0.66308    0.34481   1.00
C5       0.99085    0.58020    0.36198   1.00
H2       0.95023    0.53961    0.35243   1.00
H2       0.98132    0.56160    0.37795   1.00
C5       1.06159    0.59523    0.35493   1.00
H2       1.10243    0.63605    0.36430   1.00
H2       1.07022    0.61153    0.33876   1.00
H2       1.06599    0.54866    0.35638   1.00
C5       0.94737    0.75344    0.30709   1.00
C5       0.67282    0.42372    0.33411   1.00
H2       0.92132    0.77313    0.31701   1.00
H2       0.92289    0.74210    0.29182   1.00
H2       0.69393    0.43824    0.34977   1.00
H2       0.70095    0.40122    0.32635   1.00
H2       0.57897    0.27832    0.31901   1.00
H2       1.01602    0.89843    0.31469   1.00
H2       0.99856    0.87754    0.28793   1.00
C2       0.93146    0.79050    0.38134   1.00
C3       0.89019    0.79600    0.36627   1.00
O2       0.89217    0.85718    0.36308   1.00
C3       0.93897    0.73210    0.38132   1.00
H1       0.96877    0.72551    0.39296   1.00
C3a      0.85918    0.74464    0.35138   1.00
H1       0.83096    0.75150    0.33928   1.00
C3b      0.90986    0.68221    0.36612   1.00
C4       0.86972    0.68827    0.35097   1.00
O_3      0.94559    0.69549    0.31568   1.00
C5       0.83479    0.85572    0.37197   1.00
H2       0.78632    0.81396    0.36543   1.00
C5       0.84015    0.92457    0.36749   1.00
H2       0.83409    0.84827    0.38870   1.00
H2       0.82245    0.92362    0.35167   1.00
H2       0.89524    0.96405    0.36788   1.00
C5       0.79933    0.94242    0.38255   1.00
H2       0.74563    0.89998    0.38314   1.00
H2       0.79975    0.98983    0.37782   1.00
H2       0.82202    0.95210    0.39810   1.00
C5       1.02194    0.80835    0.30496   1.00
H2       1.04492    0.79354    0.29243   1.00
H2       1.04906    0.80918    0.31915   1.00
C5       1.03031    0.87917    0.30104   1.00
H2       1.08442    0.91641    0.29747   1.00
C5       0.76336    0.39661    0.33617   1.00
H2       0.79747    0.42141    0.32300   1.00
H2       0.79530    0.41969    0.34987   1.00
C5       0.70380    0.41163    0.33565   1.00
H2       0.71992    0.46305    0.34201   1.00
H2       0.65997    0.37260    0.34462   1.00
O_3      0.70566    0.07682    0.36558   1.00
C4       0.79707    0.15938    0.33520   1.00
C3c      0.80361    0.22403    0.33754   1.00
H1       0.82610    0.25293    0.35123   1.00
C3d      0.76853    0.12298    0.31712   1.00
C3       0.78055    0.25196    0.32252   1.00
O2       0.79617    0.31866    0.32476   1.00
C3       0.74433    0.15009    0.30230   1.00
H1       0.72062    0.11927    0.28901   1.00
C2       0.74987    0.21507    0.30452   1.00
C5       0.66009    0.01005    0.35876   1.00
H2       0.66130    -0.02951   0.36853   1.00
H2       0.67207    0.00246    0.34288   1.00
C5       0.58863    0.00017    0.35942   1.00
H2       0.58790    0.04088    0.35011   1.00
H2       0.57697    0.00723    0.37536   1.00
C5       0.53590    -0.07061   0.35152   1.00
H2       0.53668    -0.11150   0.36065   1.00
H2       0.54611    -0.07683   0.33538   1.00
H2       0.48383    -0.07744   0.35253   1.00
C5       0.81476    0.05892    0.30658   1.00
C5       0.74209    0.32106    0.33471   1.00
H2       0.85908    0.08532    0.31701   1.00
H2       0.82889    0.08514    0.29156   1.00
H2       0.73446    0.29837    0.35018   1.00
H2       0.69262    0.29215    0.32638   1.00
H2       0.68678    0.41191    0.31975   1.00
H2       0.89513    -0.00535   0.31439   1.00
H2       0.89405    0.01457    0.28773   1.00
C2       0.85915    0.06846    0.38129   1.00
C3       0.90683    0.11260    0.36684   1.00
O2       0.96783    0.11378    0.36412   1.00
C3       0.79213    0.05806    0.38069   1.00
H1       0.75493    0.02598    0.39186   1.00
C3a      0.88636    0.14359    0.35198   1.00
H1       0.92237    0.17413    0.34033   1.00
C3b      0.77135    0.08722    0.36551   1.00
C4       0.81852    0.13024    0.35096   1.00
O_3      0.75623    0.05707    0.31472   1.00
C5       1.02119    0.17134    0.37379   1.00
H2       1.02654    0.21967    0.36758   1.00
C5       1.08688    0.16958    0.36979   1.00
H2       1.01223    0.16981    0.39045   1.00
H2       1.10509    0.18943    0.35423   1.00
H2       1.07349    0.11508    0.36974   1.00
C5       1.14310    0.21042    0.38555   1.00
H2       1.15199    0.26324    0.38654   1.00
H2       1.19172    0.21273    0.38120   1.00
H2       1.12898    0.18590    0.40086   1.00
C5       0.79847    -0.01448   0.30386   1.00
H2       0.76245    -0.03723   0.29090   1.00
H2       0.77115    -0.04378   0.31767   1.00
C5       0.86317    -0.01929   0.30040   1.00
H2       0.84893    -0.07244   0.29638   1.00
C5       0.83861    0.65808    0.74846   1.00
H2       0.86175    0.62492    0.74807   1.00
H2       0.88200    0.71129    0.74880   1.00
C5       0.79517    0.64593    0.72914   1.00
H2       0.82796    0.67516    0.71607   1.00
H2       0.75674    0.66204    0.73182   1.00
O_3      0.72616    0.70818    0.84169   1.00
C4       0.79688    0.63692    0.83543   1.00
C3c      0.82248    0.65260    0.81556   1.00
H1       0.86001    0.70447    0.81170   1.00
C3d      0.74872    0.56883    0.84021   1.00
C3       0.79957    0.60222    0.80035   1.00
O2       0.83288    0.61963    0.78197   1.00
C3       0.72485    0.51880    0.82501   1.00
H1       0.68612    0.46776    0.82923   1.00
C2       0.74964    0.53392    0.80479   1.00
C5       0.66522    0.66989    0.85278   1.00
H2       0.66306    0.69762    0.86648   1.00
H2       0.65930    0.62013    0.85778   1.00
C5       0.60622    0.65656    0.83891   1.00
H2       0.60948    0.63056    0.82496   1.00
H2       0.61231    0.70656    0.83417   1.00
C5       0.53756    0.61293    0.84958   1.00
H2       0.53415    0.63838    0.86360   1.00
H2       0.53040    0.56209    0.85369   1.00
H2       0.49512    0.60499    0.83937   1.00
C5       0.75833    0.53735    0.87236   1.00
C5       0.79894    0.64115    0.76844   1.00
H2       0.80977    0.58281    0.87449   1.00
H2       0.76448    0.49434    0.86665   1.00
H2       0.79935    0.68732    0.77454   1.00
H2       0.74446    0.60118    0.76595   1.00
H2       0.76844    0.59104    0.72455   1.00
H2       0.81033    0.57214    0.91324   1.00
H2       0.79287    0.48771    0.90568   1.00
C2       0.85875    0.78915    0.88175   1.00
C3       0.89712    0.75663    0.87816   1.00
O2       0.94361    0.76026    0.89235   1.00
C3       0.80209    0.77259    0.86909   1.00
H1       0.77273    0.79787    0.87111   1.00
C3a      0.87729    0.70764    0.86256   1.00
H1       0.90484    0.68039    0.86076   1.00
C3b      0.78121    0.72228    0.85402   1.00
C4       0.81877    0.68924    0.85067   1.00
O_3      0.71814    0.55167    0.85912   1.00
C5       1.01048    0.80836    0.88628   1.00
H2       1.02332    0.79441    0.87133   1.00
C5       1.05879    0.80850    0.90254   1.00
H2       1.01686    0.86033    0.88506   1.00
H2       1.06589    0.76388    0.89992   1.00
H2       1.03256    0.79993    0.91745   1.00
C5       1.12824    0.87515    0.90287   1.00
H2       1.15120    0.88568    0.88746   1.00
H2       1.16386    0.87112    0.91367   1.00
H2       1.12284    0.91927    0.90802   1.00
C5       0.72218    0.51757    0.89279   1.00
H2       0.67626    0.46597    0.89137   1.00
H2       0.70368    0.55369    0.89632   1.00
C5       0.76928    0.51893    0.90984   1.00
H2       0.73946    0.49750    0.92400   1.00
C5       0.58884    0.43353    0.82462   1.00
H2       0.62815    0.41792    0.82409   1.00
H2       0.58843    0.44960    0.84051   1.00
C5       0.60887    0.49390    0.80991   1.00
H2       0.64705    0.54292    0.81702   1.00
H2       0.56293    0.49704    0.80569   1.00
O_3      0.24952    0.17794    0.83395   1.00
C4       0.36306    0.15877    0.83539   1.00
C3c      0.42028    0.22415    0.83751   1.00
H1       0.42619    0.25347    0.85106   1.00
C3d      0.35683    0.12102    0.81774   1.00
C3       0.47006    0.25309    0.82217   1.00
O2       0.52859    0.31360    0.82635   1.00
C3       0.40564    0.15020    0.80226   1.00
H1       0.39745    0.12027    0.78869   1.00
C2       0.46343    0.21655    0.80406   1.00
C5       0.20000    0.13470    0.81975   1.00
H2       0.14858    0.10399    0.82675   1.00
H2       0.21442    0.09886    0.81272   1.00
C5       0.19583    0.17948    0.80331   1.00
H2       0.24763    0.21157    0.79670   1.00
H2       0.18079    0.21460    0.81047   1.00
C5       0.14466    0.13623    0.78680   1.00
H2       0.09292    0.10370    0.79331   1.00
H2       0.16090    0.10285    0.77915   1.00
H2       0.14120    0.16987    0.77515   1.00
C5       0.30732    0.00642    0.82301   1.00
C5       0.52130    0.36900    0.81971   1.00
H2       0.31366    0.01267    0.83974   1.00
H2       0.35230    0.00531    0.81654   1.00
H2       0.47847    0.36940    0.82796   1.00
H2       0.51006    0.36653    0.80311   1.00
H2       0.63324    0.48829    0.79585   1.00
H2       0.22857    -0.11261   0.84795   1.00
H2       0.28547    -0.12254   0.83063   1.00
C2       0.20614    0.07110    0.88046   1.00
C3       0.26438    0.06389    0.88208   1.00
O2       0.26417    0.01553    0.89486   1.00
C3       0.20288    0.11048    0.86429   1.00
H1       0.15982    0.11844    0.86293   1.00
C3a      0.31659    0.09425    0.86742   1.00
H1       0.35899    0.08501    0.86822   1.00
C3b      0.25385    0.13876    0.84938   1.00
C4       0.31122    0.13067    0.85083   1.00
O_3      0.29898    0.05862    0.81423   1.00
C5       0.30027    0.04658    0.91283   1.00
H2       0.35434    0.08568    0.90951   1.00
C5       0.29869    -0.00994   0.92596   1.00
H2       0.27585    0.07152    0.92121   1.00
H2       0.33806    -0.02146   0.92022   1.00
H2       0.24837    -0.05679   0.92352   1.00
C5       0.31004    0.00867    0.94868   1.00
H2       0.35781    0.05831    0.95067   1.00
H2       0.31428    -0.03103   0.95747   1.00
H2       0.26627    0.01190    0.95530   1.00
C5       0.24320    -0.06114   0.81846   1.00
H2       0.24322    -0.07288   0.80206   1.00
H2       0.19816    -0.05465   0.82107   1.00
C5       0.23806    -0.11946   0.83174   1.00
H2       0.19474    -0.16895   0.82658   1.00
C5       0.57652    0.18392    0.82959   1.00
H2       0.59748    0.23959    0.82762   1.00
H2       0.56445    0.17358    0.84598   1.00
C5       0.51102    0.14445    0.81670   1.00
H2       0.46629    0.14144    0.82470   1.00
H2       0.50091    0.09186    0.81364   1.00
O_3      0.80708    0.06656    0.83714   1.00
C4       0.84130    0.20428    0.83537   1.00
C3c      0.78014    0.20458    0.83857   1.00
H1       0.75419    0.18787    0.85298   1.00
C3d      0.87482    0.22718    0.81658   1.00
C3       0.75105    0.22535    0.82326   1.00
O2       0.69579    0.23219    0.82831   1.00
C3       0.84532    0.24666    0.80117   1.00
H1       0.87163    0.26152    0.78678   1.00
C2       0.78311    0.24656    0.80408   1.00
C5       0.84221    0.05005    0.82257   1.00
H2       0.87043    0.02659    0.82956   1.00
H2       0.87944    0.09624    0.81396   1.00
C5       0.78965    -0.00099   0.80793   1.00
H2       0.76014    0.02172    0.80137   1.00
H2       0.75313    -0.04713   0.81666   1.00
C5       0.82389    -0.01994   0.79108   1.00
H2       0.85383    -0.04221   0.79753   1.00
H2       0.85858    0.02569    0.78191   1.00
H2       0.78458    -0.05841   0.78079   1.00
C5       0.99087    0.28292    0.81878   1.00
C5       0.63470    0.17110    0.82387   1.00
H2       0.99017    0.28904    0.83550   1.00
H2       0.99547    0.32926    0.81131   1.00
H2       0.63164    0.12823    0.83304   1.00
H2       0.63087    0.15635    0.80753   1.00
H2       0.51555    0.17089    0.80198   1.00
H2       1.11407    0.31816    0.84102   1.00
H2       1.12604    0.38182    0.82218   1.00
C2       0.92829    0.13448    0.88049   1.00
C3       0.94337    0.20298    0.88055   1.00
O2       0.99804    0.25157    0.89151   1.00
C3       0.88160    0.08949    0.86591   1.00
H1       0.86764    0.03635    0.86580   1.00
C3a      0.91328    0.22520    0.86591   1.00
H1       0.92833    0.27864    0.86543   1.00
C3b      0.85346    0.11225    0.85097   1.00
C4       0.86930    0.18059    0.85085   1.00
O_3      0.93236    0.22302    0.81213   1.00
C5       0.97525    0.26643    0.90970   1.00
H2       0.93966    0.28606    0.90661   1.00
C5       1.03844    0.32125    0.92075   1.00
H2       0.94867    0.22023    0.91948   1.00
H2       1.05353    0.37158    0.91374   1.00
H2       1.08087    0.31094    0.91774   1.00
C5       1.02719    0.32307    0.94376   1.00
H2       0.98140    0.32799    0.94647   1.00
H2       1.07209    0.36708    0.95097   1.00
H2       1.02056    0.27609    0.95143   1.00
C5       1.05274    0.27661    0.81323   1.00
H2       1.06007    0.28237    0.79650   1.00
H2       1.04131    0.22400    0.81706   1.00
C5       1.11744    0.32940    0.82444   1.00
H2       1.16265    0.32805    0.81848   1.00
C5       -0.03734   0.36570    0.41299   1.00
H2       -0.04683   0.40442    0.42026   1.00
H2       0.01852    0.38613    0.41405   1.00
C5       -0.07648   0.29745    0.42464   1.00
H2       -0.04774   0.29790    0.43840   1.00
H2       -0.08442   0.25440    0.41468   1.00
O_3      -0.01697   0.36721    0.30763   1.00
C4       -0.02938   0.46383    0.33134   1.00
C3c      -0.01619   0.45291    0.35139   1.00
H1       0.03381    0.46158    0.35542   1.00
C3d      -0.09457   0.45318    0.32646   1.00
C3       -0.06714   0.42984    0.36643   1.00
O2       -0.04822   0.42831    0.38617   1.00
C3       -0.14579   0.42896    0.34131   1.00
H1       -0.19569   0.41921    0.33669   1.00
C2       -0.13354   0.41694    0.36161   1.00
C5       -0.06667   0.33901    0.29218   1.00
H2       -0.04350   0.34453    0.27688   1.00
H2       -0.09876   0.36365    0.29182   1.00
C5       -0.11178   0.26351    0.29670   1.00
H2       -0.13342   0.25794    0.31222   1.00
H2       -0.07933   0.23932    0.29683   1.00
C5       -0.16898   0.22921    0.28096   1.00
H2       -0.14773   0.23500    0.26540   1.00
H2       -0.20281   0.25174    0.28130   1.00
H2       -0.20049   0.17378    0.28425   1.00
C5       -0.09393   0.52628    0.30255   1.00
C5       -0.05839   0.36288    0.39078   1.00
H2       -0.03805   0.56129    0.30406   1.00
H2       -0.12087   0.54404    0.31290   1.00
H2       -0.02595   0.35099    0.38077   1.00
H2       -0.11252   0.32163    0.38856   1.00
H2       -0.12703   0.28859    0.43010   1.00
H2       -0.02558   0.62533    0.27077   1.00
H2       -0.09162   0.63528    0.28328   1.00
C2       0.12106    0.52653    0.28444   1.00
C3       0.11813    0.57580    0.29685   1.00
O2       0.15090    0.64342    0.29108   1.00
C3       0.07569    0.45676    0.28857   1.00
H1       0.07782    0.41778    0.27968   1.00
C3a      0.06942    0.55466    0.31258   1.00
H1       0.06522    0.59303    0.32119   1.00
C3b      0.02587    0.43596    0.30379   1.00
C4       0.02232    0.48501    0.31592   1.00
O_3      -0.11168   0.45821    0.30664   1.00
C5       0.21228    0.68073    0.30202   1.00
H2       0.20264    0.67791    0.31869   1.00
C5       0.24478    0.75498    0.29503   1.00
H2       0.24785    0.66123    0.29886   1.00
H2       0.21882    0.77915    0.30295   1.00
H2       0.23336    0.75445    0.27858   1.00
C5       0.32235    0.79596    0.29881   1.00
H2       0.33312    0.79145    0.31500   1.00
H2       0.34312    0.85084    0.29514   1.00
H2       0.35009    0.77760    0.28895   1.00
C5       -0.11480   0.52908    0.28078   1.00
H2       -0.17144   0.50368    0.28011   1.00
H2       -0.09955   0.49851    0.27113   1.00
C5       -0.08174   0.60271    0.27278   1.00
H2       -0.10352   0.60334    0.25773   1.00
C5       0.40137    1.03869    0.41265   1.00
H2       0.44919    1.04767    0.42007   1.00
H2       0.36545    0.98293    0.41370   1.00
C5       0.37257    1.07844    0.42413   1.00
H2       0.34371    1.04991    0.43784   1.00
H2       0.33805    1.08682    0.41403   1.00
O_3      0.38538    1.01813    0.30727   1.00
C4       0.49321    1.02937    0.33134   1.00
C3c      0.46852    1.01645    0.35133   1.00
H1       0.42673    0.96666    0.35532   1.00
C3d      0.54834    1.09428    0.32653   1.00
C3       0.49642    1.06741    0.36637   1.00
O2       0.47531    1.04868    0.38608   1.00
C3       0.57537    1.14553    0.34137   1.00
H1       0.61600    1.19522    0.33679   1.00
C2       0.55052    1.13355    0.36161   1.00
C5       0.40778    1.06782    0.29180   1.00
H2       0.39040    1.04468    0.27649   1.00
H2       0.46455    1.09942    0.29158   1.00
C5       0.37799    1.11357    0.29612   1.00
H2       0.39377    1.13519    0.31166   1.00
H2       0.32130    1.08161    0.29612   1.00
C5       0.40188    1.17079    0.28035   1.00
H2       0.38670    1.14956    0.26478   1.00
H2       0.45829    1.20415    0.28083   1.00
H2       0.37840    1.20279    0.28350   1.00
C5       0.62104    1.09271    0.30287   1.00
C5       0.42037    1.05958    0.39047   1.00
H2       0.59958    1.03674    0.30442   1.00
H2       0.66549    1.11930    0.31333   1.00
H2       0.37620    1.02745    0.38037   1.00
H2       0.43389    1.11388    0.38819   1.00
H2       0.41446    1.12881    0.42963   1.00
H2       0.65163    1.02349    0.27134   1.00
H2       0.72760    1.08905    0.28399   1.00
C2       0.40554    0.87896    0.28443   1.00
C3       0.45711    0.88132    0.29703   1.00
O2       0.49151    0.84791    0.29144   1.00
C3       0.38172    0.92490    0.28839   1.00
H1       0.34108    0.92322    0.27936   1.00
C3a      0.48465    0.93003    0.31275   1.00
H1       0.52676    0.93377    0.32151   1.00
C3b      0.41072    0.97471    0.30361   1.00
C4       0.46270    0.97769    0.31592   1.00
O_3      0.57112    1.11118    0.30675   1.00
C5       0.46654    0.78650    0.30241   1.00
H2       0.47296    0.79616    0.31909   1.00
C5       0.50784    0.75328    0.29564   1.00
H2       0.41147    0.75137    0.29913   1.00
H2       0.55775    0.77882    0.30369   1.00
H2       0.51928    0.76459    0.27920   1.00
C5       0.47044    0.67570    0.29944   1.00
H2       0.45467    0.66510    0.31560   1.00
H2       0.50420    0.65439    0.29593   1.00
H2       0.42457    0.64832    0.28948   1.00
C5       0.64542    1.11335    0.28114   1.00
H2       0.67718    1.16996    0.28047   1.00
H2       0.59998    1.09854    0.27137   1.00
C5       0.68559    1.07959    0.27336   1.00
H2       0.70854    1.10118    0.25834   1.00
C5       0.63719    0.59855    0.41267   1.00
H2       0.59837    0.55072    0.42008   1.00
H2       0.61732    0.63445    0.41372   1.00
C5       0.70573    0.62737    0.42415   1.00
H2       0.70602    0.65620    0.43787   1.00
H2       0.74863    0.66192    0.41406   1.00
O_3      0.63276    0.61468    0.30729   1.00
C4       0.53617    0.50679    0.33134   1.00
C3c      0.54790    0.53146    0.35134   1.00
H1       0.53987    0.57322    0.35533   1.00
C3d      0.54599    0.45168    0.32653   1.00
C3       0.57097    0.50356    0.36637   1.00
O2       0.57331    0.52464    0.38608   1.00
C3       0.57020    0.42465    0.34137   1.00
H1       0.57930    0.38405    0.33679   1.00
C2       0.58304    0.44948    0.36161   1.00
C5       0.66010    0.59232    0.29182   1.00
H2       0.65435    0.60971    0.27650   1.00
H2       0.63494    0.53554    0.29159   1.00
C5       0.73564    0.62214    0.29615   1.00
H2       0.74146    0.60634    0.31168   1.00
H2       0.76033    0.67882    0.29615   1.00
C5       0.76901    0.59829    0.28038   1.00
H2       0.76296    0.61348    0.26481   1.00
H2       0.74598    0.54188    0.28085   1.00
H2       0.82448    0.62179    0.28353   1.00
C5       0.47177    0.37900    0.30286   1.00
C5       0.63913    0.57959    0.39048   1.00
H2       0.43725    0.40043    0.30440   1.00
H2       0.45391    0.33453    0.31331   1.00
H2       0.65115    0.62377    0.38039   1.00
H2       0.67992    0.56610    0.38820   1.00
H2       0.71423    0.58549    0.42965   1.00
H2       0.37200    0.34840    0.27132   1.00
H2       0.36161    0.27243    0.28395   1.00
C2       0.47343    0.59446    0.28443   1.00
C3       0.42422    0.54287    0.29702   1.00
O2       0.35642    0.50845    0.29143   1.00
C3       0.54319    0.61831    0.28840   1.00
H1       0.58215    0.65897    0.27937   1.00
C3a      0.44539    0.51532    0.31274   1.00
H1       0.40702    0.47319    0.32149   1.00
C3b      0.56400    0.58931    0.30362   1.00
C4       0.51500    0.53730    0.31592   1.00
O_3      0.54014    0.42893    0.30675   1.00
C5       0.31993    0.53337    0.30239   1.00
H2       0.32316    0.52694    0.31908   1.00
C5       0.24543    0.49205    0.29561   1.00
H2       0.33985    0.58844    0.29912   1.00
H2       0.22106    0.44213    0.30365   1.00
H2       0.24534    0.48064    0.27917   1.00
C5       0.20521    0.52941    0.29941   1.00
H2       0.21035    0.54516    0.31557   1.00
H2       0.15015    0.49563    0.29589   1.00
H2       0.22370    0.57529    0.28945   1.00
C5       0.46807    0.35464    0.28113   1.00
H2       0.49295    0.32291    0.28046   1.00
H2       0.49869    0.40010    0.27136   1.00
C5       0.39416    0.31446    0.27333   1.00
H2       0.39284    0.29154    0.25832   1.00
C5       0.33103    0.38547    0.24256   1.00
H2       0.37612    0.43614    0.23933   1.00
H2       0.34700    0.34750    0.23907   1.00
C5       0.31148    0.38144    0.26521   1.00
H2       0.34432    0.36907    0.27480   1.00
H2       0.25718    0.34153    0.26745   1.00
O_3      0.07838    0.24165    0.16866   1.00
C4       0.20406    0.36332    0.16452   1.00
C3c      0.24429    0.36454    0.18091   1.00
H1       0.25917    0.32612    0.18199   1.00
C3d      0.18604    0.41442    0.16324   1.00
C3       0.26508    0.41438    0.19623   1.00
O2       0.31112    0.41733    0.21040   1.00
C3       0.20557    0.46334    0.17868   1.00
H1       0.18851    0.50006    0.17741   1.00
C2       0.24563    0.46487    0.19546   1.00
C5       0.02221    0.24987    0.16377   1.00
H2       -0.01111   0.21304    0.15196   1.00
H2       0.03942    0.30253    0.15818   1.00
C5       -0.01953   0.23735    0.18298   1.00
H2       0.01425    0.27286    0.19496   1.00
H2       -0.03698   0.18444    0.18832   1.00
C5       -0.08059   0.24768    0.17918   1.00
H2       -0.11429   0.21271    0.16712   1.00
H2       -0.06314   0.30116    0.17452   1.00
H2       -0.11132   0.23684    0.19326   1.00
C5       0.18029    0.44689    0.13089   1.00
C5       0.27604    0.37809    0.22759   1.00
H2       0.20765    0.42166    0.12459   1.00
H2       0.21829    0.50124    0.13426   1.00
H2       0.24294    0.32353    0.22322   1.00
H2       0.24252    0.39548    0.23474   1.00
H2       0.31927    0.43147    0.27080   1.00
H2       0.17274    0.42351    0.08765   1.00
H2       0.21113    0.51332    0.09411   1.00
C2       0.13282    0.20869    0.11869   1.00
C3       0.19762    0.26769    0.11682   1.00
O2       0.23101    0.28456    0.09840   1.00
C3       0.09421    0.20079    0.13640   1.00
H1       0.04519    0.15539    0.13853   1.00
C3a      0.22139    0.31769    0.13222   1.00
H1       0.26936    0.36433    0.13002   1.00
C3b      0.11703    0.25160    0.15137   1.00
C4       0.18099    0.31070    0.14934   1.00
O_3      0.14227    0.41250    0.14827   1.00
C5       0.28255    0.26686    0.09821   1.00
H2       0.32084    0.29394    0.11044   1.00
C5       0.31772    0.28814    0.07752   1.00
H2       0.26047    0.21086    0.10026   1.00
H2       0.35438    0.34401    0.07782   1.00
H2       0.27800    0.27978    0.06610   1.00
C5       0.35434    0.24872    0.07158   1.00
H2       0.38988    0.25321    0.08388   1.00
H2       0.38398    0.26950    0.05732   1.00
H2       0.31711    0.19366    0.06868   1.00
C5       0.13033    0.44457    0.11502   1.00
H2       0.11182    0.47963    0.11985   1.00
H2       0.08520    0.39212    0.11486   1.00
C5       0.16263    0.46359    0.09376   1.00
H2       0.12730    0.46830    0.08306   1.00
C5       0.38821    0.57979    0.16926   1.00
H2       0.40158    0.56482    0.18384   1.00
H2       0.40293    0.55543    0.15718   1.00
C5       0.31053    0.55289    0.16860   1.00
H2       0.28217    0.49818    0.16411   1.00
H2       0.29917    0.58302    0.15755   1.00
O_3      0.61598    0.90015    0.13020   1.00
C4       0.63773    0.84077    0.16482   1.00
C3c      0.58683    0.77172    0.16439   1.00
H1       0.58614    0.73937    0.15222   1.00
C3d      0.63829    0.88181    0.18096   1.00
C3       0.53569    0.74357    0.17937   1.00
O2       0.49271    0.67403    0.17933   1.00
C3       0.58669    0.85426    0.19569   1.00
H1       0.58782    0.88828    0.20738   1.00
C2       0.53440    0.78471    0.19536   1.00
C5       0.62642    0.96607    0.13397   1.00
H2       0.66408    1.00477    0.12330   1.00
H2       0.64488    0.98282    0.14977   1.00
C5       0.55842    0.96319    0.13117   1.00
H2       0.52029    0.92316    0.14142   1.00
H2       0.54080    0.94704    0.11529   1.00
C5       0.56467    1.03252    0.13571   1.00
H2       0.60301    1.07283    0.12562   1.00
H2       0.57997    1.04759    0.15176   1.00
H2       0.51484    1.02981    0.13315   1.00
C5       0.74483    0.96330    0.19090   1.00
C5       0.43313    0.65746    0.16814   1.00
H2       0.76963    0.93898    0.18247   1.00
H2       0.73526    0.94385    0.20680   1.00
H2       0.44654    0.67413    0.15205   1.00
H2       0.40520    0.68267    0.17430   1.00
H2       0.29070    0.55586    0.18388   1.00
H2       0.88976    1.04391    0.18360   1.00
H2       0.86856    1.03311    0.21044   1.00
C2       0.78998    0.93115    0.11850   1.00
C3       0.80047    0.89846    0.13521   1.00
O2       0.86485    0.90956    0.13954   1.00
C3       0.72714    0.93015    0.11705   1.00
H1       0.71683    0.95317    0.10418   1.00
C3a      0.74940    0.86744    0.15017   1.00
H1       0.75976    0.84605    0.16344   1.00
C3b      0.67735    0.90118    0.13228   1.00
C4       0.68828    0.86962    0.14903   1.00
O_3      0.68413    0.95119    0.18126   1.00
C5       0.87132    0.85381    0.13292   1.00
H2       0.83313    0.80548    0.14047   1.00
C5       0.94330    0.86945    0.13856   1.00
H2       0.86437    0.84707    0.11618   1.00
H2       0.94382    0.85781    0.15494   1.00
H2       0.97789    0.92543    0.13681   1.00
C5       0.96836    0.82970    0.12555   1.00
H2       0.93051    0.77431    0.12620   1.00
H2       1.01828    0.83796    0.13119   1.00
H2       0.97642    0.84720    0.10940   1.00
C5       0.79307    1.04008    0.19121   1.00
H2       0.77371    1.06304    0.20246   1.00
H2       0.79110    1.06088    0.17607   1.00
C5       0.86677    1.05860    0.19621   1.00
H2       0.89892    1.11457    0.19839   1.00
C5       0.39629    0.76283    0.16378   1.00
H2       0.42120    0.79700    0.17693   1.00
H2       0.41935    0.79468    0.15006   1.00
C5       0.41118    0.70317    0.16431   1.00
H2       0.46254    0.71917    0.15794   1.00
H2       0.37205    0.65934    0.15537   1.00
O_3      0.07657    0.70558    0.13447   1.00
C4       0.15939    0.79707    0.16480   1.00
C3c      0.22397    0.80347    0.16244   1.00
H1       0.25281    0.82585    0.14873   1.00
C3d      0.12306    0.76867    0.18290   1.00
C3       0.25190    0.78041    0.17746   1.00
O2       0.31855    0.79590    0.17519   1.00
C3       0.15016    0.74447    0.19772   1.00
H1       0.11938    0.72087    0.21103   1.00
C2       0.21507    0.74987    0.19548   1.00
C5       0.00980    0.66013    0.14133   1.00
H2       -0.02976   0.66138    0.13157   1.00
H2       0.00233    0.67223    0.15720   1.00
C5       -0.00021   0.58862    0.14070   1.00
H2       0.04050    0.58785    0.14999   1.00
H2       0.00673    0.57685    0.12475   1.00
C5       -0.07099   0.53602    0.14863   1.00
H2       -0.11189   0.53684    0.13951   1.00
H2       -0.07710   0.54634    0.16477   1.00
H2       -0.07793   0.48391    0.14764   1.00
C5       0.05920    0.81515    0.19344   1.00
C5       0.32078    0.74170    0.16526   1.00
H2       0.08562    0.85940    0.18299   1.00
H2       0.08550    0.82932    0.20844   1.00
H2       0.29803    0.73402    0.14980   1.00
H2       0.29184    0.69228    0.17362   1.00
H2       0.41149    0.68623    0.18022   1.00
H2       -0.00487   0.89569    0.18562   1.00
H2       0.01516    0.89471    0.21227   1.00
C2       0.06845    0.85915    0.11871   1.00
C3       0.11272    0.90687    0.13313   1.00
O2       0.11404    0.96794    0.13583   1.00
C3       0.05794    0.79209    0.11933   1.00
H1       0.02575    0.75486    0.10819   1.00
C3a      0.14371    0.88640    0.14799   1.00
H1       0.17435    0.92244    0.15962   1.00
C3b      0.08709    0.77132    0.13452   1.00
C4       0.13024    0.81852    0.14904   1.00
O_3      0.05719    0.75652    0.18532   1.00
C5       0.17161    1.02119    0.12613   1.00
H2       0.21993    1.02648    0.13232   1.00
C5       0.17000    1.08698    0.13011   1.00
H2       0.16998    1.01213    0.10947   1.00
H2       0.18994    1.10525    0.14566   1.00
H2       0.11553    1.07368    0.13018   1.00
C5       0.21083    1.14308    0.11431   1.00
H2       0.26361    1.15186    0.11331   1.00
H2       0.21327    1.19177    0.11865   1.00
H2       0.18624    1.12892    0.09902   1.00
C5       -0.01414   0.79900    0.19619   1.00
H2       -0.03687   0.76306    0.20916   1.00
H2       -0.04353   0.77164    0.18239   1.00
C5       -0.01879   0.86380    0.19963   1.00
H2       -0.07190   0.84968    0.20366   1.00
C5       1.01819    0.57954    0.58254   1.00
H2       1.06008    0.63346    0.58284   1.00
H2       0.97009    0.58132    0.58329   1.00
C5       1.02157    0.54557    0.56254   1.00
H2       0.99753    0.55856    0.54988   1.00
H2       0.99471    0.48918    0.56439   1.00
O_3      0.93476    0.39780    0.67319   1.00
C4       1.02987    0.53757    0.66878   1.00
C3c      1.01911    0.55544    0.64929   1.00
H1       0.97117    0.55265    0.64574   1.00
C3d      1.09306    0.54250    0.67318   1.00
C3       1.06924    0.57615    0.63406   1.00
O2       1.05839    0.60074    0.61620   1.00
C3       1.14258    0.56185    0.65794   1.00
H1       1.18931    0.56256    0.66182   1.00
C2       1.13225    0.57938    0.63809   1.00
C5       0.96210    0.36208    0.68342   1.00
H2       0.93091    0.33362    0.69685   1.00
H2       1.01521    0.39752    0.68868   1.00
C5       0.96299    0.31119    0.66859   1.00
H2       0.99256    0.33941    0.65492   1.00
H2       0.90967    0.27569    0.66359   1.00
C5       0.99437    0.27166    0.67831   1.00
H2       0.96537    0.24373    0.69205   1.00
H2       1.04838    0.30681    0.68266   1.00
H2       0.99320    0.23367    0.66739   1.00
C5       1.12928    0.57475    0.70570   1.00
C5       1.02697    0.54730    0.60189   1.00
H2       1.09157    0.59171    0.70843   1.00
H2       1.17804    0.61939    0.70044   1.00
H2       0.97629    0.50707    0.60764   1.00
H2       1.05795    0.52235    0.59871   1.00
H2       1.07554    0.56421    0.55789   1.00
H2       1.10268    0.59506    0.74722   1.00
H2       1.19133    0.64973    0.73998   1.00
C2       0.87664    0.46689    0.71502   1.00
C3       0.92150    0.53748    0.71239   1.00
O2       0.92829    0.58295    0.72739   1.00
C3       0.88159    0.42112    0.70146   1.00
H1       0.84685    0.36690    0.70274   1.00
C3a      0.97085    0.56043    0.69682   1.00
H1       1.00732    0.61433    0.69573   1.00
C3b      0.93213    0.44397    0.68641   1.00
C4       0.97736    0.51408    0.68401   1.00
O_3      1.10427    0.52060    0.69163   1.00
C5       0.89149    0.61591    0.72220   1.00
H2       0.91013    0.64445    0.70762   1.00
C5       0.90249    0.66603    0.73933   1.00
H2       0.83600    0.57845    0.72070   1.00
H2       0.95320    0.71259    0.73718   1.00
H2       0.90539    0.64218    0.75380   1.00
C5       0.84584    0.68482    0.74043   1.00
H2       0.84003    0.70348    0.72539   1.00
H2       0.85851    0.72553    0.75191   1.00
H2       0.79605    0.64013    0.74514   1.00
C5       1.14202    0.54875    0.72558   1.00
H2       1.18777    0.54299    0.72370   1.00
H2       1.09793    0.49685    0.72849   1.00
C5       1.15139    0.59636    0.74347   1.00
H2       1.16756    0.57975    0.75721   1.00
C5       0.56360    -0.01901   0.58272   1.00
H2       0.57505    -0.06129   0.58313   1.00
H2       0.61373    0.02877    0.58354   1.00
C5       0.52702    -0.02202   0.56259   1.00
H2       0.56447    0.00168    0.55002   1.00
H2       0.49792    0.00535    0.56428   1.00
O_3      0.46430    0.06634    0.67285   1.00
C4       0.50768    -0.02987   0.66878   1.00
C3c      0.53682    -0.01945   0.64937   1.00
H1       0.58237    0.02823    0.64588   1.00
C3d      0.44889    -0.09273   0.67310   1.00
C3       0.50741    -0.06957   0.63414   1.00
O2       0.54328    -0.05913   0.61638   1.00
C3       0.41875    -0.14223   0.65785   1.00
H1       0.37233    -0.18867   0.66166   1.00
C2       0.44713    -0.13223   0.63808   1.00
C5       0.40101    0.03962    0.68291   1.00
H2       0.40372    0.07101    0.69628   1.00
H2       0.38266    -0.01357   0.68821   1.00
C5       0.34995    0.03931    0.66789   1.00
H2       0.34865    0.00954    0.65428   1.00
H2       0.36846    0.09272    0.66285   1.00
C5       0.27883    0.00862    0.67742   1.00
H2       0.27985    0.03781    0.69111   1.00
H2       0.25931    -0.04547   0.68182   1.00
H2       0.24256    0.01020    0.66637   1.00
C5       0.44359    -0.12902   0.70568   1.00
C5       0.52218    -0.02730   0.60193   1.00
H2       0.49829    -0.09174   0.70853   1.00
H2       0.43905    -0.17804   0.70050   1.00
H2       0.53300    0.02357    0.60762   1.00
H2       0.46631    -0.05780   0.59862   1.00
H2       0.49138    -0.07590   0.55792   1.00
H2       0.48935    -0.10271   0.74730   1.00
H2       0.45471    -0.19150   0.74013   1.00
C2       0.59025    0.12341    0.71501   1.00
C3       0.61536    0.07796    0.71256   1.00
O2       0.65330    0.07072    0.72771   1.00
C3       0.54016    0.11899    0.70128   1.00
H1       0.52118    0.15418    0.70242   1.00
C3a      0.58897    0.02860    0.69699   1.00
H1       0.60589    -0.00830   0.69604   1.00
C3b      0.51247    0.06845    0.68623   1.00
C4       0.53671    0.02264    0.68401   1.00
O_3      0.41532    -0.10356   0.69145   1.00
C5       0.72322    0.10688    0.72269   1.00
H2       0.73325    0.08797    0.70818   1.00
C5       0.76147    0.09539    0.73998   1.00
H2       0.74185    0.16248    0.72115   1.00
H2       0.75681    0.04443    0.73792   1.00
H2       0.73444    0.09284    0.75436   1.00
C5       0.83711    0.15148    0.74124   1.00
H2       0.86194    0.15700    0.72627   1.00
H2       0.86449    0.13843    0.75283   1.00
H2       0.84265    0.20152    0.74586   1.00
C5       0.40435    -0.14132   0.72544   1.00
H2       0.35267    -0.18673   0.72348   1.00
H2       0.39705    -0.09687   0.72824   1.00
C5       0.44175    -0.15115   0.74349   1.00
H2       0.40857    -0.16699   0.75715   1.00
C5       0.41752    0.43650    0.58271   1.00
H2       0.36378    0.42503    0.58312   1.00
H2       0.41520    0.38639    0.58353   1.00
C5       0.45111    0.47312    0.56259   1.00
H2       0.43740    0.43569    0.55001   1.00
H2       0.50758    0.50224    0.56428   1.00
O_3      0.60204    0.53575    0.67286   1.00
C4       0.46244    0.49232    0.66878   1.00
C3c      0.44376    0.46320    0.64937   1.00
H1       0.44591    0.41767    0.64588   1.00
C3d      0.45833    0.55108    0.67311   1.00
C3       0.42305    0.49261    0.63413   1.00
O2       0.39766    0.45676    0.61637   1.00
C3       0.43898    0.58123    0.65786   1.00
H1       0.43892    0.62762    0.66167   1.00
C2       0.42064    0.55287    0.63808   1.00
C5       0.63858    0.59904    0.68293   1.00
H2       0.66724    0.59632    0.69631   1.00
H2       0.60370    0.61735    0.68823   1.00
C5       0.68932    0.65013    0.66793   1.00
H2       0.66087    0.65143    0.65431   1.00
H2       0.72426    0.63166    0.66288   1.00
C5       0.72972    0.72124    0.67746   1.00
H2       0.75788    0.72022    0.69115   1.00
H2       0.69512    0.74073    0.68186   1.00
H2       0.76758    0.75754    0.66642   1.00
C5       0.42728    0.55633    0.70568   1.00
C5       0.45061    0.47791    0.60193   1.00
H2       0.40988    0.50162    0.70852   1.00
H2       0.38279    0.56085    0.70049   1.00
H2       0.49067    0.46710    0.60762   1.00
H2       0.47596    0.53378    0.59862   1.00
H2       0.43285    0.50874    0.55792   1.00
H2       0.40779    0.51051    0.74730   1.00
H2       0.35362    0.54512    0.74012   1.00
C2       0.53314    0.40975    0.71501   1.00
C3       0.46259    0.38462    0.71255   1.00
O2       0.41740    0.34664    0.72769   1.00
C3       0.57882    0.45987    0.70129   1.00
H1       0.63299    0.47887    0.70244   1.00
C3a      0.43961    0.41100    0.69698   1.00
H1       0.38579    0.39406    0.69603   1.00
C3b      0.55597    0.48756    0.68624   1.00
C4       0.48591    0.46329    0.68401   1.00
O_3      0.48103    0.58463    0.69146   1.00
C5       0.38367    0.27673    0.72266   1.00
H2       0.35475    0.26670    0.70815   1.00
C5       0.33391    0.23843    0.73995   1.00
H2       0.42067    0.25813    0.72113   1.00
H2       0.28760    0.24307    0.73788   1.00
H2       0.35836    0.26545    0.75433   1.00
C5       0.31440    0.16281    0.74120   1.00
H2       0.29512    0.13800    0.72623   1.00
H2       0.27395    0.13539    0.75279   1.00
H2       0.35891    0.15729    0.74583   1.00
C5       0.45417    0.59554    0.72545   1.00
H2       0.46042    0.64721    0.72349   1.00
H2       0.50594    0.60287    0.72825   1.00
C5       0.40693    0.55810    0.74348   1.00
H2       0.42424    0.59126    0.75715   1.00
C5       0.30925    -0.32393   0.17376   1.00
H2       0.26854    -0.32949   0.16321   1.00
H2       0.28946    -0.32536   0.18927   1.00
C5       0.32258    -0.38403   0.17067   1.00
H2       0.28406    -0.43018   0.17895   1.00
H2       0.37438    -0.36981   0.17629   1.00
O_3      0.57971    0.00340    0.19164   1.00
C4       0.46268    -0.02919   0.16857   1.00
C3c      0.41590    -0.09790   0.17280   1.00
H1       0.39585    -0.11277   0.18798   1.00
C3d      0.48745    -0.01074   0.14862   1.00
C3       0.39503    -0.14845   0.15769   1.00
O2       0.34302    -0.21298   0.16232   1.00
C3       0.46777    -0.06114   0.13364   1.00
H1       0.48997    -0.04490   0.11874   1.00
C2       0.42108    -0.13097   0.13770   1.00
C5       0.64080    0.04581    0.18106   1.00
H2       0.67514    0.09317    0.18967   1.00
H2       0.63016    0.06088    0.16598   1.00
C5       0.67743    0.00572    0.17792   1.00
H2       0.64241    -0.04254   0.16983   1.00
H2       0.68836    -0.00851   0.19307   1.00
C5       0.74353    0.04739    0.16585   1.00
H2       0.77855    0.09587    0.17378   1.00
H2       0.73247    0.05959    0.15045   1.00
H2       0.77034    0.01784    0.16409   1.00
C5       0.50653    0.09417    0.13904   1.00
C5       0.37038    -0.25327   0.16940   1.00
H2       0.47703    0.09740    0.15206   1.00
H2       0.47168    0.07233    0.12574   1.00
H2       0.40038    -0.23073   0.18355   1.00
H2       0.40522    -0.25707   0.15811   1.00
H2       0.31820    -0.39880   0.15433   1.00
H2       0.52465    0.22643    0.14904   1.00
H2       0.49233    0.19922    0.12347   1.00
C2       0.53393    0.12564    0.21434   1.00
C3       0.47311    0.10760    0.20371   1.00
O2       0.44545    0.14979    0.20410   1.00
C3       0.56824    0.08916    0.21019   1.00
H1       0.61396    0.10053    0.21844   1.00
C3a      0.44914    0.05545    0.18897   1.00
H1       0.40467    0.04491    0.18015   1.00
C3b      0.54547    0.03883    0.19507   1.00
C4       0.48558    0.02168    0.18429   1.00
O_3      0.53743    0.05527    0.14403   1.00
C5       0.38969    0.12390    0.21760   1.00
H2       0.34896    0.07176    0.21302   1.00
C5       0.36131    0.17265    0.21691   1.00
H2       0.40610    0.12151    0.23338   1.00
H2       0.32893    0.16096    0.20313   1.00
H2       0.40532    0.22517    0.21485   1.00
C5       0.32048    0.16874    0.23609   1.00
H2       0.28016    0.11502    0.23881   1.00
H2       0.29594    0.20050    0.23430   1.00
H2       0.35430    0.18866    0.24970   1.00
C5       0.56322    0.16578    0.13375   1.00
H2       0.58496    0.16399    0.11876   1.00
H2       0.60477    0.18145    0.14514   1.00
C5       0.53777    0.21737    0.13346   1.00
H2       0.57839    0.26719    0.12752   1.00
C5       1.05418    0.38610    0.09132   1.00
H2       1.05814    0.42947    0.08236   1.00
H2       0.99978    0.34545    0.09052   1.00
C5       1.10021    0.36117    0.08171   1.00
H2       1.07428    0.32691    0.06859   1.00
H2       1.11283    0.33309    0.09317   1.00
O_3      1.02955    0.39858    0.19629   1.00
C4       1.02929    0.49315    0.16864   1.00
C3c      1.01961    0.46295    0.14941   1.00
H1       0.97237    0.41678    0.14603   1.00
C3d      1.09082    0.55384    0.17264   1.00
C3       1.07068    0.49099    0.13441   1.00
O2       1.05441    0.46346    0.11523   1.00
C3       1.14228    0.58117    0.15787   1.00
H1       1.18954    0.62642    0.16188   1.00
C2       1.13363    0.55087    0.13842   1.00
C5       1.07854    0.43002    0.21180   1.00
H2       1.05554    0.41532    0.22722   1.00
H2       1.10491    0.48672    0.21054   1.00
C5       1.13070    0.40695    0.20946   1.00
H2       1.15231    0.41992    0.19385   1.00
H2       1.10392    0.35036    0.21093   1.00
C5       1.18744    0.44082    0.22536   1.00
H2       1.16617    0.42848    0.24098   1.00
H2       1.21575    0.49720    0.22345   1.00
H2       1.22425    0.42220    0.22369   1.00
C5       1.07913    0.62776    0.19348   1.00
C5       1.07287    0.41265    0.11308   1.00
H2       1.02276    0.60035    0.19166   1.00
H2       1.10222    0.66937    0.18196   1.00
H2       1.04391    0.37051    0.12412   1.00
H2       1.12842    0.43270    0.11588   1.00
H2       1.14850    0.40481    0.07567   1.00
H2       1.00084    0.65632    0.22240   1.00
H2       1.06130    0.73146    0.20829   1.00
C2       0.87910    0.40616    0.21562   1.00
C3       0.87584    0.45070    0.20126   1.00
O2       0.83609    0.47996    0.20493   1.00
C3       0.93071    0.38876    0.21343   1.00
H1       0.93351    0.35343    0.22386   1.00
C3a      0.92461    0.47793    0.18555   1.00
H1       0.92379    0.51496    0.17538   1.00
C3b      0.98044    0.41763    0.19818   1.00
C4       0.97777    0.46271    0.18410   1.00
O_3      1.10494    0.58271    0.19179   1.00
C5       0.77483    0.44593    0.19377   1.00
H2       0.78501    0.44837    0.17713   1.00
C5       0.73438    0.48195    0.19836   1.00
H2       0.74436    0.39136    0.19837   1.00
H2       0.75558    0.52917    0.18902   1.00
H2       0.74416    0.49865    0.21450   1.00
C5       0.65725    0.43638    0.19448   1.00
H2       0.64875    0.41583    0.17878   1.00
H2       0.63045    0.46599    0.19633   1.00
H2       0.63353    0.39322    0.20554   1.00
C5       1.09691    0.65914    0.21458   1.00
H2       1.15274    0.69594    0.21517   1.00
H2       1.08641    0.61791    0.22568   1.00
C5       1.05598    0.69433    0.22022   1.00
H2       1.07526    0.72260    0.23472   1.00
C5       0.59792    0.63604    0.08721   1.00
H2       0.54994    0.59726    0.07985   1.00
H2       0.63363    0.61595    0.08615   1.00
C5       0.62685    0.70446    0.07565   1.00
H2       0.65547    0.70447    0.06192   1.00
H2       0.66163    0.74743    0.08569   1.00
O_3      0.61513    0.63277    0.19258   1.00
C4       0.50679    0.53617    0.16866   1.00
C3c      0.53123    0.54758    0.14864   1.00
H1       0.57283    0.53930    0.14463   1.00
C3d      0.45190    0.54632    0.17350   1.00
C3       0.50334    0.57065    0.13361   1.00
O2       0.52417    0.57266    0.11388   1.00
C3       0.42488    0.57054    0.15865   1.00
H1       0.38446    0.57989    0.16325   1.00
C2       0.44950    0.58305    0.13839   1.00
C5       0.59311    0.66046    0.20804   1.00
H2       0.61061    0.65479    0.22335   1.00
H2       0.53635    0.63551    0.20832   1.00
C5       0.62316    0.73598    0.20363   1.00
H2       0.60725    0.74170    0.18811   1.00
H2       0.67982    0.76048    0.20358   1.00
C5       0.59968    0.76972    0.21940   1.00
H2       0.61498    0.76378    0.23495   1.00
H2       0.54329    0.74689    0.21897   1.00
H2       0.62335    0.82518    0.21618   1.00
C5       0.37930    0.47255    0.19727   1.00
C5       0.57925    0.63833    0.10940   1.00
H2       0.40052    0.43783    0.19574   1.00
H2       0.33475    0.45473    0.18685   1.00
H2       0.62349    0.65030    0.11946   1.00
H2       0.56599    0.67931    0.11166   1.00
H2       0.58505    0.71311    0.07017   1.00
H2       0.34867    0.37306    0.22890   1.00
H2       0.27268    0.36284    0.21631   1.00
C2       0.59448    0.47344    0.21556   1.00
C3       0.54265    0.42421    0.20305   1.00
O2       0.50806    0.35648    0.20871   1.00
C3       0.61855    0.54321    0.21153   1.00
H1       0.65939    0.58218    0.22050   1.00
C3a      0.51509    0.44537    0.18733   1.00
H1       0.47279    0.40700    0.17863   1.00
C3b      0.58954    0.56402    0.19631   1.00
C4       0.53730    0.51500    0.18408   1.00
O_3      0.42939    0.54080    0.19329   1.00
C5       0.53264    0.31967    0.19776   1.00
H2       0.52606    0.32273    0.18107   1.00
C5       0.49115    0.24526    0.20462   1.00
H2       0.58771    0.33942    0.20098   1.00
H2       0.44115    0.22097    0.19662   1.00
H2       0.47994    0.24542    0.22106   1.00
C5       0.52821    0.20474    0.20083   1.00
H2       0.54377    0.20963    0.18465   1.00
H2       0.49429    0.14975    0.20441   1.00
H2       0.57417    0.22318    0.21074   1.00
C5       0.35523    0.46920    0.21901   1.00
H2       0.32368    0.49429    0.21968   1.00
H2       0.40082    0.49980    0.22873   1.00
C5       0.31488    0.39540    0.22689   1.00
H2       0.29217    0.39436    0.24192   1.00
C5       0.34270    0.65220    0.65933   1.00
H2       0.33547    0.60980    0.66940   1.00
H2       0.34066    0.63377    0.64359   1.00
C5       0.28439    0.66792    0.66290   1.00
H2       0.23773    0.63143    0.65440   1.00
H2       0.30050    0.72074    0.65784   1.00
O_3      0.67441    0.91644    0.64295   1.00
C4       0.63744    0.79599    0.66476   1.00
C3c      0.56832    0.75157    0.66035   1.00
H1       0.55311    0.73338    0.64501   1.00
C3d      0.65630    0.81832    0.68490   1.00
C3       0.51781    0.73073    0.67546   1.00
O2       0.45256    0.68086    0.67056   1.00
C3       0.60599    0.79870    0.69990   1.00
H1       0.62263    0.81905    0.71498   1.00
C2       0.53577    0.75441    0.69566   1.00
C5       0.71831    0.97583    0.65403   1.00
H2       0.76618    1.00983    0.64559   1.00
H2       0.73246    0.96274    0.66889   1.00
C5       0.68054    1.01447    0.65783   1.00
H2       0.63178    0.97987    0.66576   1.00
H2       0.66724    1.02783    0.64290   1.00
C5       0.72391    1.07883    0.67048   1.00
H2       0.77290    1.11340    0.66271   1.00
H2       0.73523    1.06539    0.68566   1.00
H2       0.69607    1.10718    0.67272   1.00
C5       0.75966    0.83244    0.69413   1.00
C5       0.41433    0.71116    0.66403   1.00
H2       0.76176    0.80366    0.68075   1.00
H2       0.73671    0.79638    0.70712   1.00
H2       0.43778    0.74235    0.65014   1.00
H2       0.41192    0.74560    0.67576   1.00
H2       0.26957    0.66229    0.67926   1.00
H2       0.88997    0.84659    0.68364   1.00
H2       0.86173    0.81200    0.70894   1.00
C2       0.79243    0.86725    0.61904   1.00
C3       0.77216    0.80483    0.62903   1.00
O2       0.81232    0.77496    0.62807   1.00
C3       0.75809    0.90326    0.62381   1.00
H1       0.77119    0.95029    0.61605   1.00
C3a      0.71997    0.78094    0.64375   1.00
H1       0.70773    0.73508    0.65208   1.00
C3b      0.70773    0.88046    0.63891   1.00
C4       0.68836    0.81895    0.64905   1.00
O_3      0.72291    0.86608    0.68973   1.00
C5       0.78484    0.72064    0.61404   1.00
H2       0.73208    0.68077    0.61841   1.00
C5       0.83138    0.68965    0.61412   1.00
H2       0.78335    0.73917    0.59849   1.00
H2       0.81845    0.65563    0.62757   1.00
H2       0.88458    0.73214    0.61643   1.00
C5       0.82609    0.65027    0.59448   1.00
H2       0.77189    0.61167    0.59157   1.00
H2       0.85615    0.62377    0.59579   1.00
H2       0.84714    0.68541    0.58118   1.00
C5       0.83202    0.88673    0.69972   1.00
H2       0.83100    0.90734    0.71497   1.00
H2       0.84920    0.92968    0.68875   1.00
C5       0.88147    0.85865    0.69942   1.00
H2       0.93184    0.89738    0.70558   1.00
C5       0.42794    0.60041    0.67227   1.00
H2       0.40900    0.63696    0.67366   1.00
H2       0.44166    0.60137    0.65605   1.00
C5       0.49155    0.62405    0.68588   1.00
H2       0.53807    0.66446    0.67820   1.00
H2       0.49897    0.58013    0.68942   1.00
O_3      0.18720    0.25543    0.66415   1.00
C4       0.15872    0.36302    0.66462   1.00
C3c      0.22167    0.42290    0.66182   1.00
H1       0.24905    0.43091    0.64772   1.00
C3d      0.12341    0.35402    0.68299   1.00
C3       0.25071    0.47274    0.67714   1.00
O2       0.30814    0.53354    0.67240   1.00
C3       0.15279    0.40294    0.69843   1.00
H1       0.12496    0.39269    0.71252   1.00
C2       0.21676    0.46345    0.69593   1.00
C5       0.14879    0.20449    0.67862   1.00
H2       0.11957    0.15286    0.67163   1.00
H2       0.11198    0.21556    0.68662   1.00
C5       0.19839    0.20370    0.69398   1.00
H2       0.22894    0.25579    0.70055   1.00
H2       0.23448    0.19196    0.68586   1.00
C5       0.16051    0.15115    0.71074   1.00
H2       0.12952    0.09908    0.70428   1.00
H2       0.12621    0.16416    0.71932   1.00
H2       0.19767    0.15025    0.72158   1.00
C5       0.00767    0.29790    0.67961   1.00
C5       0.36715    0.53065    0.67770   1.00
H2       0.01060    0.30462    0.66286   1.00
H2       0.00439    0.34095    0.68668   1.00
H2       0.36923    0.48963    0.66890   1.00
H2       0.36847    0.51951    0.69418   1.00
H2       0.48653    0.64689    0.70035   1.00
H2       -0.11409   0.21356    0.65632   1.00
H2       -0.12538   0.26728    0.67457   1.00
C2       0.07147    0.20616    0.61952   1.00
C3       0.05940    0.26156    0.61883   1.00
O2       0.00710    0.25784    0.60714   1.00
C3       0.11537    0.20585    0.63474   1.00
H1       0.12704    0.16508    0.63536   1.00
C3a      0.08960    0.31384    0.63347   1.00
H1       0.07677    0.35386    0.63344   1.00
C3b      0.14357    0.25678    0.64967   1.00
C4       0.13069    0.31127    0.64916   1.00
O_3      0.06384    0.29374    0.68711   1.00
C5       0.03322    0.29501    0.58900   1.00
H2       0.07024    0.34984    0.59216   1.00
C5       -0.02748   0.28936    0.57712   1.00
H2       0.05927    0.27352    0.57977   1.00
H2       -0.04126   0.32624    0.58363   1.00
H2       -0.07173   0.23749    0.57994   1.00
C5       -0.01326   0.30188    0.55419   1.00
H2       0.03414    0.35151    0.55174   1.00
H2       -0.05621   0.30304    0.54635   1.00
H2       -0.00790   0.26016    0.54694   1.00
C5       -0.05656   0.23120    0.68480   1.00
H2       -0.06569   0.23018    0.70143   1.00
H2       -0.04700   0.18846    0.68146   1.00
C5       -0.11889   0.22199    0.67277   1.00
H2       -0.16588   0.17662    0.67845   1.00
C5       0.18357    0.57638    0.67047   1.00
H2       0.23924    0.59728    0.67241   1.00
H2       0.17315    0.56425    0.65408   1.00
C5       0.14408    0.51093    0.68337   1.00
H2       0.14097    0.46614    0.67539   1.00
H2       0.09152    0.50090    0.68645   1.00
O_3      0.06660    0.80725    0.66290   1.00
C4       0.20428    0.84130    0.66463   1.00
C3c      0.20448    0.78009    0.66144   1.00
H1       0.18769    0.75409    0.64704   1.00
C3d      0.22728    0.87488    0.68340   1.00
C3       0.22525    0.75099    0.67676   1.00
O2       0.23199    0.69567    0.67171   1.00
C3       0.24676    0.84538    0.69882   1.00
H1       0.26171    0.87174    0.71320   1.00
C2       0.24657    0.78311    0.69592   1.00
C5       0.05022    0.84248    0.67747   1.00
H2       0.02678    0.87073    0.67048   1.00
H2       0.09646    0.87971    0.68606   1.00
C5       -0.00081   0.79001    0.69213   1.00
H2       0.02187    0.76047    0.69869   1.00
H2       -0.04700   0.75350    0.68342   1.00
C5       -0.01963   0.82436    0.70898   1.00
H2       -0.04187   0.85434    0.70253   1.00
H2       0.02605    0.85904    0.71813   1.00
H2       -0.05809   0.78511    0.71928   1.00
C5       0.28315    0.99093    0.68117   1.00
C5       0.17087    0.63463    0.67617   1.00
H2       0.28919    0.99015    0.66445   1.00
H2       0.32949    0.99548    0.68863   1.00
H2       0.12798    0.63160    0.66702   1.00
H2       0.15619    0.63088    0.69252   1.00
H2       0.17056    0.51547    0.69809   1.00
H2       0.31846    1.11408    0.65890   1.00
H2       0.38216    1.12604    0.67773   1.00
C2       0.13448    0.92830    0.61951   1.00
C3       0.20295    0.94329    0.61943   1.00
O2       0.25155    0.99789    0.60845   1.00
C3       0.08952    0.88169    0.63411   1.00
H1       0.03640    0.86780    0.63424   1.00
C3a      0.22518    0.91319    0.63407   1.00
H1       0.27860    0.92817    0.63454   1.00
C3b      0.11228    0.85355    0.64905   1.00
C4       0.18059    0.86930    0.64915   1.00
O_3      0.22323    0.93248    0.68785   1.00
C5       0.26629    0.97500    0.59026   1.00
H2       0.28587    0.93936    0.59335   1.00
C5       0.32113    1.03812    0.57918   1.00
H2       0.22005    0.94843    0.58050   1.00
H2       0.37147    1.05317    0.58618   1.00
H2       0.31090    1.08059    0.58219   1.00
C5       0.32284    1.02677    0.55618   1.00
H2       0.32768    0.98093    0.55347   1.00
H2       0.36686    1.07162    0.54895   1.00
H2       0.27586    1.02018    0.54852   1.00
C5       0.27695    1.05287    0.68671   1.00
H2       0.28278    1.06025    0.70344   1.00
H2       0.22435    1.04149    0.68289   1.00
C5       0.32976    1.11750    0.67547   1.00
H2       0.32850    1.16276    0.68143   1.00
