data_IRMOF10_interpen_symm_ligand11cp_label_a_1.

_audit_creation_method             'generated by an auxiliary program of Tobunporous'

_symmetry_space_group_name_H-M     'P 1'
_symmetry_Int_Tables_number        1
_symmetry_cell_setting             triclinic

_cell_length_a                    22.6523
_cell_length_b                    22.6523
_cell_length_c                    65.9502
_cell_angle_alpha                 90.0000
_cell_angle_beta                  90.0000
_cell_angle_gamma                 120.0000

loop_
_atom_site_label
_atom_site_fract_x
_atom_site_fract_y
_atom_site_fract_z
_atom_site_occupancy
O1       0.00000    0.00000    0.57470   1.00
Zn1      0.00000    0.00000    0.54560   1.00
Zn1      0.94843    0.04287    0.58357   1.00
Zn1      0.09443    0.05157    0.58357   1.00
Zn1      0.95713    0.90557    0.58357   1.00
O2       0.93860    0.02610    0.53560   1.00
O2       0.08750    0.06140    0.53560   1.00
O2       0.97390    0.91250    0.53560   1.00
O2       0.91300    0.07160    0.56150   1.00
O2       0.00463    0.12027    0.60077   1.00
O2       0.87413    0.98077    0.60037   1.00
O2       0.15860    0.08700    0.56150   1.00
O2       0.10663    0.12587    0.60037   1.00
O2       0.11563    0.99537    0.60077   1.00
O2       0.92840    0.84140    0.56150   1.00
O2       0.87973    0.88437    0.60077   1.00
O2       0.01923    0.89337    0.60037   1.00
C1       0.91390    0.06020    0.54330   1.00
C1       0.14630    0.08610    0.54330   1.00
C1       0.93980    0.85370    0.54330   1.00
C1       0.06663    0.14397    0.60637   1.00
C1       0.85603    0.92267    0.60637   1.00
C1       0.07733    0.93337    0.60637   1.00
O1       0.00000    0.00000    0.92530   1.00
Zn1      0.00000    0.00000    0.95440   1.00
Zn1      0.04287    0.94843    0.91643   1.00
Zn1      0.05157    0.09443    0.91643   1.00
Zn1      0.90557    0.95713    0.91643   1.00
O2       0.02610    0.93860    0.96440   1.00
O2       0.06140    0.08750    0.96440   1.00
O2       0.91250    0.97390    0.96440   1.00
O2       0.07160    0.91300    0.93850   1.00
O2       0.12027    0.00463    0.89923   1.00
O2       0.98077    0.87413    0.89963   1.00
O2       0.08700    0.15860    0.93850   1.00
O2       0.12587    0.10663    0.89963   1.00
O2       0.99537    0.11563    0.89923   1.00
O2       0.84140    0.92840    0.93850   1.00
O2       0.88437    0.87973    0.89923   1.00
O2       0.89337    0.01923    0.89963   1.00
C1       0.06020    0.91390    0.95670   1.00
C1       0.08610    0.14630    0.95670   1.00
C1       0.85370    0.93980    0.95670   1.00
C1       0.14397    0.06663    0.89363   1.00
C1       0.92267    0.85603    0.89363   1.00
C1       0.93337    0.07733    0.89363   1.00
O1       0.00000    0.00000    0.42530   1.00
Zn1      0.00000    0.00000    0.45440   1.00
Zn1      0.05157    0.95713    0.41643   1.00
Zn1      0.90557    0.94843    0.41643   1.00
Zn1      0.04287    0.09443    0.41643   1.00
O2       0.06140    0.97390    0.46440   1.00
O2       0.91250    0.93860    0.46440   1.00
O2       0.02610    0.08750    0.46440   1.00
O2       0.08700    0.92840    0.43850   1.00
O2       0.99537    0.87973    0.39923   1.00
O2       0.12587    0.01923    0.39963   1.00
O2       0.84140    0.91300    0.43850   1.00
O2       0.89337    0.87413    0.39963   1.00
O2       0.88437    0.00463    0.39923   1.00
O2       0.07160    0.15860    0.43850   1.00
O2       0.12027    0.11563    0.39923   1.00
O2       0.98077    0.10663    0.39963   1.00
C1       0.08610    0.93980    0.45670   1.00
C1       0.85370    0.91390    0.45670   1.00
C1       0.06020    0.14630    0.45670   1.00
C1       0.93337    0.85603    0.39363   1.00
C1       0.14397    0.07733    0.39363   1.00
C1       0.92267    0.06663    0.39363   1.00
O1       0.00000    0.00000    0.07470   1.00
Zn1      0.00000    0.00000    0.04560   1.00
Zn1      0.95713    0.05157    0.08357   1.00
Zn1      0.94843    0.90557    0.08357   1.00
Zn1      0.09443    0.04287    0.08357   1.00
O2       0.97390    0.06140    0.03560   1.00
O2       0.93860    0.91250    0.03560   1.00
O2       0.08750    0.02610    0.03560   1.00
O2       0.92840    0.08700    0.06150   1.00
O2       0.87973    0.99537    0.10077   1.00
O2       0.01923    0.12587    0.10037   1.00
O2       0.91300    0.84140    0.06150   1.00
O2       0.87413    0.89337    0.10037   1.00
O2       0.00463    0.88437    0.10077   1.00
O2       0.15860    0.07160    0.06150   1.00
O2       0.11563    0.12027    0.10077   1.00
O2       0.10663    0.98077    0.10037   1.00
C1       0.93980    0.08610    0.04330   1.00
C1       0.91390    0.85370    0.04330   1.00
C1       0.14630    0.06020    0.04330   1.00
C1       0.85603    0.93337    0.10637   1.00
C1       0.07733    0.14397    0.10637   1.00
C1       0.06663    0.92267    0.10637   1.00
O1       0.66667    0.33333    0.90803   1.00
Zn1      0.66667    0.33333    0.87893   1.00
Zn1      0.61510    0.37620    0.91690   1.00
Zn1      0.76110    0.38490    0.91690   1.00
Zn1      0.62380    0.23890    0.91690   1.00
O2       0.60527    0.35943    0.86893   1.00
O2       0.75417    0.39473    0.86893   1.00
O2       0.64057    0.24583    0.86893   1.00
O2       0.57967    0.40493    0.89483   1.00
O2       0.67130    0.45360    0.93410   1.00
O2       0.54080    0.31410    0.93370   1.00
O2       0.82527    0.42033    0.89483   1.00
O2       0.77330    0.45920    0.93370   1.00
O2       0.78230    0.32870    0.93410   1.00
O2       0.59507    0.17473    0.89483   1.00
O2       0.54640    0.21770    0.93410   1.00
O2       0.68590    0.22670    0.93370   1.00
C1       0.58057    0.39353    0.87663   1.00
C1       0.81297    0.41943    0.87663   1.00
C1       0.60647    0.18703    0.87663   1.00
C1       0.73330    0.47730    0.93970   1.00
C1       0.52270    0.25600    0.93970   1.00
C1       0.74400    0.26670    0.93970   1.00
O1       0.66667    0.33333    0.25863   1.00
Zn1      0.66667    0.33333    0.28773   1.00
Zn1      0.70953    0.28177    0.24977   1.00
Zn1      0.71823    0.42777    0.24977   1.00
Zn1      0.57223    0.29047    0.24977   1.00
O2       0.69277    0.27193    0.29773   1.00
O2       0.72807    0.42083    0.29773   1.00
O2       0.57917    0.30723    0.29773   1.00
O2       0.73827    0.24633    0.27183   1.00
O2       0.78693    0.33797    0.23257   1.00
O2       0.64743    0.20747    0.23297   1.00
O2       0.75367    0.49193    0.27183   1.00
O2       0.79253    0.43997    0.23297   1.00
O2       0.66203    0.44897    0.23257   1.00
O2       0.50807    0.26173    0.27183   1.00
O2       0.55103    0.21307    0.23257   1.00
O2       0.56003    0.35257    0.23297   1.00
C1       0.72687    0.24723    0.29003   1.00
C1       0.75277    0.47963    0.29003   1.00
C1       0.52037    0.27313    0.29003   1.00
C1       0.81063    0.39997    0.22697   1.00
C1       0.58933    0.18937    0.22697   1.00
C1       0.60003    0.41067    0.22697   1.00
O1       0.66667    0.33333    0.75863   1.00
Zn1      0.66667    0.33333    0.78773   1.00
Zn1      0.71823    0.29047    0.74977   1.00
Zn1      0.57223    0.28177    0.74977   1.00
Zn1      0.70953    0.42777    0.74977   1.00
O2       0.72807    0.30723    0.79773   1.00
O2       0.57917    0.27193    0.79773   1.00
O2       0.69277    0.42083    0.79773   1.00
O2       0.75367    0.26173    0.77183   1.00
O2       0.66203    0.21307    0.73257   1.00
O2       0.79253    0.35257    0.73297   1.00
O2       0.50807    0.24633    0.77183   1.00
O2       0.56003    0.20747    0.73297   1.00
O2       0.55103    0.33797    0.73257   1.00
O2       0.73827    0.49193    0.77183   1.00
O2       0.78693    0.44897    0.73257   1.00
O2       0.64743    0.43997    0.73297   1.00
C1       0.75277    0.27313    0.79003   1.00
C1       0.52037    0.24723    0.79003   1.00
C1       0.72687    0.47963    0.79003   1.00
C1       0.60003    0.18937    0.72697   1.00
C1       0.81063    0.41067    0.72697   1.00
C1       0.58933    0.39997    0.72697   1.00
O1       0.66667    0.33333    0.40803   1.00
Zn1      0.66667    0.33333    0.37893   1.00
Zn1      0.62380    0.38490    0.41690   1.00
Zn1      0.61510    0.23890    0.41690   1.00
Zn1      0.76110    0.37620    0.41690   1.00
O2       0.64057    0.39473    0.36893   1.00
O2       0.60527    0.24583    0.36893   1.00
O2       0.75417    0.35943    0.36893   1.00
O2       0.59507    0.42033    0.39483   1.00
O2       0.54640    0.32870    0.43410   1.00
O2       0.68590    0.45920    0.43370   1.00
O2       0.57967    0.17473    0.39483   1.00
O2       0.54080    0.22670    0.43370   1.00
O2       0.67130    0.21770    0.43410   1.00
O2       0.82527    0.40493    0.39483   1.00
O2       0.78230    0.45360    0.43410   1.00
O2       0.77330    0.31410    0.43370   1.00
C1       0.60647    0.41943    0.37663   1.00
C1       0.58057    0.18703    0.37663   1.00
C1       0.81297    0.39353    0.37663   1.00
C1       0.52270    0.26670    0.43970   1.00
C1       0.74400    0.47730    0.43970   1.00
C1       0.73330    0.25600    0.43970   1.00
O1       0.33333    0.66667    0.24137   1.00
Zn1      0.33333    0.66667    0.21227   1.00
Zn1      0.28177    0.70953    0.25023   1.00
Zn1      0.42777    0.71823    0.25023   1.00
Zn1      0.29047    0.57223    0.25023   1.00
O2       0.27193    0.69277    0.20227   1.00
O2       0.42083    0.72807    0.20227   1.00
O2       0.30723    0.57917    0.20227   1.00
O2       0.24633    0.73827    0.22817   1.00
O2       0.33797    0.78693    0.26743   1.00
O2       0.20747    0.64743    0.26703   1.00
O2       0.49193    0.75367    0.22817   1.00
O2       0.43997    0.79253    0.26703   1.00
O2       0.44897    0.66203    0.26743   1.00
O2       0.26173    0.50807    0.22817   1.00
O2       0.21307    0.55103    0.26743   1.00
O2       0.35257    0.56003    0.26703   1.00
C1       0.24723    0.72687    0.20997   1.00
C1       0.47963    0.75277    0.20997   1.00
C1       0.27313    0.52037    0.20997   1.00
C1       0.39997    0.81063    0.27303   1.00
C1       0.18937    0.58933    0.27303   1.00
C1       0.41067    0.60003    0.27303   1.00
O1       0.33333    0.66667    0.59197   1.00
Zn1      0.33333    0.66667    0.62107   1.00
Zn1      0.37620    0.61510    0.58310   1.00
Zn1      0.38490    0.76110    0.58310   1.00
Zn1      0.23890    0.62380    0.58310   1.00
O2       0.35943    0.60527    0.63107   1.00
O2       0.39473    0.75417    0.63107   1.00
O2       0.24583    0.64057    0.63107   1.00
O2       0.40493    0.57967    0.60517   1.00
O2       0.45360    0.67130    0.56590   1.00
O2       0.31410    0.54080    0.56630   1.00
O2       0.42033    0.82527    0.60517   1.00
O2       0.45920    0.77330    0.56630   1.00
O2       0.32870    0.78230    0.56590   1.00
O2       0.17473    0.59507    0.60517   1.00
O2       0.21770    0.54640    0.56590   1.00
O2       0.22670    0.68590    0.56630   1.00
C1       0.39353    0.58057    0.62337   1.00
C1       0.41943    0.81297    0.62337   1.00
C1       0.18703    0.60647    0.62337   1.00
C1       0.47730    0.73330    0.56030   1.00
C1       0.25600    0.52270    0.56030   1.00
C1       0.26670    0.74400    0.56030   1.00
O1       0.33333    0.66667    0.09197   1.00
Zn1      0.33333    0.66667    0.12107   1.00
Zn1      0.38490    0.62380    0.08310   1.00
Zn1      0.23890    0.61510    0.08310   1.00
Zn1      0.37620    0.76110    0.08310   1.00
O2       0.39473    0.64057    0.13107   1.00
O2       0.24583    0.60527    0.13107   1.00
O2       0.35943    0.75417    0.13107   1.00
O2       0.42033    0.59507    0.10517   1.00
O2       0.32870    0.54640    0.06590   1.00
O2       0.45920    0.68590    0.06630   1.00
O2       0.17473    0.57967    0.10517   1.00
O2       0.22670    0.54080    0.06630   1.00
O2       0.21770    0.67130    0.06590   1.00
O2       0.40493    0.82527    0.10517   1.00
O2       0.45360    0.78230    0.06590   1.00
O2       0.31410    0.77330    0.06630   1.00
C1       0.41943    0.60647    0.12337   1.00
C1       0.18703    0.58057    0.12337   1.00
C1       0.39353    0.81297    0.12337   1.00
C1       0.26670    0.52270    0.06030   1.00
C1       0.47730    0.74400    0.06030   1.00
C1       0.25600    0.73330    0.06030   1.00
O1       0.33333    0.66667    0.74137   1.00
Zn1      0.33333    0.66667    0.71227   1.00
Zn1      0.29047    0.71823    0.75023   1.00
Zn1      0.28177    0.57223    0.75023   1.00
Zn1      0.42777    0.70953    0.75023   1.00
O2       0.30723    0.72807    0.70227   1.00
O2       0.27193    0.57917    0.70227   1.00
O2       0.42083    0.69277    0.70227   1.00
O2       0.26173    0.75367    0.72817   1.00
O2       0.21307    0.66203    0.76743   1.00
O2       0.35257    0.79253    0.76703   1.00
O2       0.24633    0.50807    0.72817   1.00
O2       0.20747    0.56003    0.76703   1.00
O2       0.33797    0.55103    0.76743   1.00
O2       0.49193    0.73827    0.72817   1.00
O2       0.44897    0.78693    0.76743   1.00
O2       0.43997    0.64743    0.76703   1.00
C1       0.27313    0.75277    0.70997   1.00
C1       0.24723    0.52037    0.70997   1.00
C1       0.47963    0.72687    0.70997   1.00
C1       0.18937    0.60003    0.77303   1.00
C1       0.41067    0.81063    0.77303   1.00
C1       0.39997    0.58933    0.77303   1.00
C5       0.90377    0.95683    0.49122   1.00
H2       0.87297    0.95433    0.50464   1.00
H2       0.86919    0.94368    0.47795   1.00
C5       0.96513    1.03000    0.48903   1.00
H2       0.94944    1.06393    0.48144   1.00
H2       1.00615    1.02920    0.47994   1.00
O_3      0.94281    0.67628    0.47152   1.00
C4       0.85987    0.68391    0.50201   1.00
C3c      0.85536    0.74219    0.49758   1.00
H1       0.83065    0.74410    0.48377   1.00
C3d      0.89140    0.68206    0.52024   1.00
C3       0.88330    0.79903    0.51064   1.00
O2       0.86966    0.85064    0.50656   1.00
C3       0.92042    0.73909    0.53308   1.00
H1       0.94621    0.73625    0.54653   1.00
C2       0.91697    0.79872    0.52872   1.00
C5       0.98794    0.65551    0.47906   1.00
H2       0.98292    0.61019    0.47084   1.00
H2       0.97893    0.64271    0.49552   1.00
C5       1.06012    0.71447    0.47616   1.00
H2       1.06460    0.76029    0.48389   1.00
H2       1.06877    0.72639    0.45965   1.00
C5       1.11261    0.69701    0.48465   1.00
H2       1.10812    0.65102    0.47709   1.00
H2       1.10552    0.68742    0.50126   1.00
H2       1.16511    0.74012    0.48199   1.00
C5       0.84402    0.57658    0.53470   1.00
C5       0.92262    0.90140    0.49464   1.00
H2       0.79770    0.55615    0.52501   1.00
H2       0.83403    0.59565    0.54917   1.00
H2       0.92604    0.87944    0.47983   1.00
H2       0.97361    0.92343    0.50215   1.00
H2       0.98596    1.05329    0.50419   1.00
H2       0.75784    0.43030    0.53220   1.00
H2       0.76563    0.46249    0.55790   1.00
C2       0.78278    0.51262    0.46182   1.00
C3       0.73925    0.51711    0.47630   1.00
O2       0.67781    0.46032    0.48118   1.00
C3       0.85069    0.56726    0.46035   1.00
H1       0.88477    0.56619    0.44908   1.00
C3a      0.76463    0.57447    0.48918   1.00
H1       0.73182    0.57534    0.50094   1.00
C3b      0.87639    0.62320    0.47361   1.00
C4       0.83336    0.62710    0.48820   1.00
O_3      0.90172    0.62809    0.52456   1.00
C5       0.62374    0.46303    0.47144   1.00
H2       0.62166    0.50941    0.47604   1.00
C5       0.55768    0.39922    0.47786   1.00
H2       0.62913    0.46333    0.45463   1.00
H2       0.54340    0.40808    0.49325   1.00
H2       0.56908    0.35693    0.47939   1.00
C5       0.49868    0.37970    0.46278   1.00
H2       0.49159    0.42427    0.46021   1.00
H2       0.45024    0.33671    0.46879   1.00
H2       0.50866    0.36224    0.44797   1.00
C5       0.85817    0.51904    0.53947   1.00
H2       0.89675    0.53618    0.55184   1.00
H2       0.88173    0.51013    0.52583   1.00
C5       0.79288    0.45287    0.54543   1.00
H2       0.80606    0.41440    0.55083   1.00
C5       0.26983    0.26559    0.57951   1.00
H2       0.22237    0.26463    0.57470   1.00
H2       0.31139    0.31930    0.57774   1.00
C5       0.26332    0.24321    0.60196   1.00
H2       0.27448    0.28644    0.61230   1.00
H2       0.29947    0.22463    0.60525   1.00
O_3      0.42943    0.16148    0.50949   1.00
C4       0.31525    0.17622    0.50171   1.00
C3c      0.31022    0.21229    0.51831   1.00
H1       0.35029    0.26410    0.52109   1.00
C3d      0.26201    0.10911    0.49818   1.00
C3       0.25430    0.18210    0.53170   1.00
O2       0.24880    0.22309    0.54610   1.00
C3       0.20690    0.07846    0.51171   1.00
H1       0.16849    0.02608    0.50880   1.00
C2       0.20137    0.11395    0.52870   1.00
C5       0.41893    0.09685    0.50376   1.00
H2       0.45917    0.10075    0.49319   1.00
H2       0.36839    0.06581    0.49624   1.00
C5       0.42095    0.06057    0.52291   1.00
H2       0.38204    0.05838    0.53370   1.00
H2       0.47184    0.09168    0.53018   1.00
C5       0.40749    -0.01140   0.51811   1.00
H2       0.44589    -0.00962   0.50723   1.00
H2       0.35574    -0.04323   0.51150   1.00
H2       0.41066    -0.03655   0.53223   1.00
C5       0.24145    0.08073    0.46470   1.00
C5       0.27954    0.21977    0.56441   1.00
H2       0.27190    0.13479    0.45974   1.00
H2       0.18702    0.06719    0.46622   1.00
H2       0.33496    0.23884    0.56195   1.00
H2       0.25637    0.16661    0.57046   1.00
H2       0.21024    0.20198    0.60555   1.00
H2       0.28255    0.10674    0.42267   1.00
H2       0.19048    0.05890    0.42581   1.00
C2       0.48756    0.26250    0.46179   1.00
C3       0.43242    0.27361    0.45818   1.00
O2       0.42501    0.29689    0.43955   1.00
C3       0.48567    0.22544    0.47930   1.00
H1       0.52788    0.21758    0.48277   1.00
C3a      0.37652    0.24631    0.47166   1.00
H1       0.33299    0.25192    0.46807   1.00
C3b      0.42905    0.19651    0.49232   1.00
C4       0.37380    0.20669    0.48854   1.00
O_3      0.26694    0.06969    0.48297   1.00
C5       0.44698    0.36712    0.44058   1.00
H2       0.41695    0.37759    0.45201   1.00
C5       0.43610    0.38864    0.41954   1.00
H2       0.50205    0.39727    0.44467   1.00
H2       0.38127    0.37308    0.41794   1.00
H2       0.44648    0.35860    0.40816   1.00
C5       0.48164    0.46574    0.41560   1.00
H2       0.47457    0.49492    0.42799   1.00
H2       0.46825    0.48030    0.40090   1.00
H2       0.53667    0.48063    0.41460   1.00
C5       0.24671    0.03552    0.44855   1.00
H2       0.20741    -0.01840   0.45174   1.00
H2       0.29737    0.03903    0.45007   1.00
C5       0.23818    0.05637    0.42700   1.00
H2       0.23516    0.01819    0.41584   1.00
C5       0.76755    0.05561    0.58587   1.00
H2       0.75767    0.00313    0.58300   1.00
H2       0.71671    0.05182    0.58611   1.00
C5       0.80345    0.08089    0.60662   1.00
H2       0.76575    0.06065    0.61924   1.00
H2       0.83119    0.13761    0.60714   1.00
O_3      0.86316    0.27804    0.50377   1.00
C4       0.82360    0.13892    0.50173   1.00
C3c      0.79445    0.11119    0.52065   1.00
H1       0.74808    0.11004    0.52528   1.00
C3d      0.88349    0.13904    0.49587   1.00
C3       0.82487    0.08553    0.53398   1.00
O2       0.78911    0.05175    0.55110   1.00
C3       0.91462    0.11472    0.50927   1.00
H1       0.96180    0.11808    0.50441   1.00
C2       0.88622    0.08720    0.52855   1.00
C5       0.92636    0.32035    0.49420   1.00
H2       0.92278    0.35394    0.48249   1.00
H2       0.94617    0.28945    0.48676   1.00
C5       0.97645    0.36507    0.51042   1.00
H2       0.97858    0.33152    0.52242   1.00
H2       0.95647    0.39614    0.51762   1.00
C5       1.04746    0.41120    0.50139   1.00
H2       1.04563    0.44450    0.48930   1.00
H2       1.06845    0.38022    0.49483   1.00
H2       1.08299    0.44456    0.51339   1.00
C5       0.89016    0.12326    0.46196   1.00
C5       0.80871    0.09774    0.56757   1.00
H2       0.83518    0.10551    0.45954   1.00
H2       0.89617    0.07792    0.46472   1.00
H2       0.79646    0.13874    0.56423   1.00
H2       0.86461    0.12305    0.57084   1.00
H2       0.84021    0.06245    0.60948   1.00
H2       0.84465    0.12072    0.42087   1.00
H2       0.88154    0.06624    0.42441   1.00
C2       0.73781    0.22467    0.46152   1.00
C3       0.71458    0.15407    0.46096   1.00
O2       0.67763    0.11529    0.44457   1.00
C3       0.78709    0.26499    0.47625   1.00
H1       0.80462    0.31886    0.47742   1.00
C3a      0.74200    0.12594    0.47457   1.00
H1       0.72655    0.07256    0.47318   1.00
C3b      0.81584    0.23727    0.48933   1.00
C4       0.79347    0.16727    0.48854   1.00
O_3      0.91701    0.17038    0.47809   1.00
C5       0.60766    0.07767    0.44946   1.00
H2       0.59829    0.04285    0.46258   1.00
C5       0.57056    0.03538    0.43073   1.00
H2       0.58752    0.11225    0.45330   1.00
H2       0.57679    -0.01036   0.43031   1.00
H2       0.59734    0.06644    0.41712   1.00
C5       0.49437    0.01409    0.43026   1.00
H2       0.46965    -0.01212   0.44467   1.00
H2       0.46796    -0.02121   0.41738   1.00
H2       0.48733    0.05917    0.42807   1.00
C5       0.92930    0.15950    0.44286   1.00
H2       0.98159    0.16668    0.44391   1.00
H2       0.93507    0.21132    0.44255   1.00
C5       0.89300    0.12002    0.42349   1.00
H2       0.92625    0.14406    0.41009   1.00
C5       0.95939    0.91184    0.00966   1.00
H2       0.95770    0.88021    -0.00344   1.00
H2       0.94705    0.87862    0.02322   1.00
C5       1.03185    0.97457    0.01156   1.00
H2       1.06669    0.96077    0.01948   1.00
H2       1.02989    1.01579    0.02020   1.00
O_3      0.67390    0.94412    0.02755   1.00
C4       0.68392    0.85985    -0.00201   1.00
C3c      0.74314    0.85748    0.00276   1.00
H1       0.74580    0.83445    0.01684   1.00
C3d      0.68113    0.88920    -0.02057   1.00
C3       0.79996    0.88542    -0.01031   1.00
O2       0.85267    0.87382    -0.00584   1.00
C3       0.73810    0.91823    -0.03344   1.00
H1       0.73447    0.94233    -0.04716   1.00
C2       0.79866    0.91693    -0.02874   1.00
C5       0.65155    0.98731    0.01943   1.00
H2       0.60577    0.98182    0.02747   1.00
H2       0.63880    0.97656    0.00300   1.00
C5       0.70930    1.06035    0.02185   1.00
H2       0.75561    1.06536    0.01430   1.00
H2       0.72116    1.07072    0.03831   1.00
C5       0.69010    1.11079    0.01272   1.00
H2       0.64361    1.10574    0.02009   1.00
H2       0.68055    1.10201    -0.00386   1.00
H2       0.73233    1.16397    0.01503   1.00
C5       0.57550    0.83820    -0.03504   1.00
C5       0.90265    0.92853    0.00577   1.00
H2       0.55611    0.79288    -0.02497   1.00
H2       0.59509    0.82758    -0.04930   1.00
H2       0.88032    0.93263    0.02043   1.00
H2       0.92354    0.97870    -0.00217   1.00
H2       1.05484    0.99438    -0.00370   1.00
H2       0.42964    0.74938    -0.03235   1.00
H2       0.46200    0.75562    -0.05796   1.00
C2       0.51251    0.78271    0.03814   1.00
C3       0.51827    0.73863    0.02416   1.00
O2       0.46242    0.67605    0.01965   1.00
C3       0.56599    0.85130    0.03915   1.00
H1       0.56396    0.88587    0.05005   1.00
C3a      0.57568    0.76409    0.01129   1.00
H1       0.57747    0.73072    -0.00011   1.00
C3b      0.62195    0.87699    0.02590   1.00
C4       0.62710    0.83339    0.01180   1.00
O_3      0.62611    0.89744    -0.02527   1.00
C5       0.46670    0.62375    0.02998   1.00
H2       0.51378    0.62260    0.02563   1.00
C5       0.40387    0.55628    0.02395   1.00
H2       0.46689    0.63060    0.04672   1.00
H2       0.41323    0.54105    0.00876   1.00
H2       0.36067    0.56616    0.02208   1.00
C5       0.38577    0.49897    0.03955   1.00
H2       0.43116    0.49350    0.04242   1.00
H2       0.34355    0.44949    0.03385   1.00
H2       0.36781    0.50966    0.05416   1.00
C5       0.51675    0.85007    -0.04024   1.00
H2       0.53303    0.88744    -0.05294   1.00
H2       0.50708    0.87427    -0.02691   1.00
C5       0.45151    0.78332    -0.04584   1.00
H2       0.41212    0.79473    -0.05156   1.00
C5       0.26545    0.26994    -0.07955   1.00
H2       0.26455    0.22250    -0.07474   1.00
H2       0.31916    0.31153    -0.07779   1.00
C5       0.24300    0.26341    -0.10199   1.00
H2       0.28621    0.27461    -0.11235   1.00
H2       0.22437    0.29953    -0.10527   1.00
O_3      0.16135    0.42937    -0.00947   1.00
C4       0.17622    0.31525    -0.00171   1.00
C3c      0.21227    0.31025    -0.01833   1.00
H1       0.26405    0.35035    -0.02112   1.00
C3d      0.10914    0.26197    0.00183   1.00
C3       0.18207    0.25433    -0.03172   1.00
O2       0.22305    0.24887    -0.04613   1.00
C3       0.07849    0.20686    -0.01169   1.00
H1       0.02613    0.16842    -0.00877   1.00
C2       0.11395    0.20137    -0.02870   1.00
C5       0.09672    0.41881    -0.00371   1.00
H2       0.10061    0.45903    0.00686   1.00
H2       0.06573    0.36826    0.00381   1.00
C5       0.06037    0.42080    -0.02285   1.00
H2       0.05818    0.38190    -0.03365   1.00
H2       0.09142    0.47169    -0.03013   1.00
C5       -0.01161   0.40729    -0.01803   1.00
H2       -0.00983   0.44566    -0.00715   1.00
H2       -0.04339   0.35553    -0.01141   1.00
H2       -0.03681   0.41043    -0.03214   1.00
C5       0.08086    0.24140    0.03532   1.00
C5       0.21964    0.27961    -0.06443   1.00
H2       0.13493    0.27187    0.04027   1.00
H2       0.06735    0.18698    0.03380   1.00
H2       0.23868    0.33501    -0.06197   1.00
H2       0.16647    0.25639    -0.07047   1.00
H2       0.20180    0.21032    -0.10558   1.00
H2       0.10696    0.28249    0.07735   1.00
H2       0.05918    0.19042    0.07421   1.00
C2       0.26250    0.48756    0.03821   1.00
C3       0.27367    0.43245    0.04181   1.00
O2       0.29702    0.42507    0.06043   1.00
C3       0.22538    0.48564    0.02072   1.00
H1       0.21746    0.52782    0.01725   1.00
C3a      0.24637    0.37655    0.02832   1.00
H1       0.25203    0.33305    0.03191   1.00
C3b      0.19644    0.42901    0.00769   1.00
C4       0.20669    0.37380    0.01146   1.00
O_3      0.06973    0.26686    0.01706   1.00
C5       0.36726    0.44709    0.05937   1.00
H2       0.37773    0.41708    0.04794   1.00
C5       0.38886    0.43623    0.08041   1.00
H2       0.39736    0.50216    0.05528   1.00
H2       0.37335    0.38141    0.08201   1.00
H2       0.35883    0.44658    0.09181   1.00
C5       0.46596    0.48182    0.08433   1.00
H2       0.49513    0.47478    0.07193   1.00
H2       0.48059    0.46845    0.09902   1.00
H2       0.48082    0.53683    0.08534   1.00
C5       0.03567    0.24661    0.05148   1.00
H2       -0.01825   0.20728    0.04830   1.00
H2       0.03913    0.29725    0.04997   1.00
C5       0.05660    0.23810    0.07302   1.00
H2       0.01844    0.23505    0.08420   1.00
C5       0.05561    0.76755    -0.08587   1.00
H2       0.00312    0.75767    -0.08300   1.00
H2       0.05182    0.71671    -0.08611   1.00
C5       0.08089    0.80345    -0.10662   1.00
H2       0.06065    0.76575    -0.11924   1.00
H2       0.13761    0.83119    -0.10714   1.00
O_3      0.27804    0.86316    -0.00377   1.00
C4       0.13892    0.82360    -0.00173   1.00
C3c      0.11119    0.79445    -0.02065   1.00
H1       0.11004    0.74808    -0.02528   1.00
C3d      0.13904    0.88349    0.00413   1.00
C3       0.08553    0.82487    -0.03398   1.00
O2       0.05175    0.78911    -0.05110   1.00
C3       0.11472    0.91462    -0.00927   1.00
H1       0.11809    0.96180    -0.00441   1.00
C2       0.08720    0.88622    -0.02855   1.00
C5       0.32035    0.92636    0.00580   1.00
H2       0.35394    0.92278    0.01751   1.00
H2       0.28945    0.94617    0.01324   1.00
C5       0.36507    0.97645    -0.01043   1.00
H2       0.33152    0.97858    -0.02242   1.00
H2       0.39614    0.95647    -0.01762   1.00
C5       0.41120    1.04746    -0.00139   1.00
H2       0.44450    1.04563    0.01070   1.00
H2       0.38022    1.06845    0.00517   1.00
H2       0.44456    1.08299    -0.01339   1.00
C5       0.12326    0.89016    0.03804   1.00
C5       0.09773    0.80871    -0.06757   1.00
H2       0.10551    0.83518    0.04046   1.00
H2       0.07792    0.89617    0.03528   1.00
H2       0.13874    0.79646    -0.06423   1.00
H2       0.12305    0.86461    -0.07084   1.00
H2       0.06245    0.84021    -0.10948   1.00
H2       0.12072    0.84465    0.07913   1.00
H2       0.06624    0.88154    0.07559   1.00
C2       0.22467    0.73781    0.03848   1.00
C3       0.15407    0.71458    0.03904   1.00
O2       0.11529    0.67763    0.05543   1.00
C3       0.26499    0.78709    0.02375   1.00
H1       0.31886    0.80462    0.02258   1.00
C3a      0.12594    0.74200    0.02543   1.00
H1       0.07256    0.72655    0.02682   1.00
C3b      0.23727    0.81584    0.01067   1.00
C4       0.16727    0.79347    0.01146   1.00
O_3      0.17038    0.91701    0.02191   1.00
C5       0.07767    0.60766    0.05054   1.00
H2       0.04285    0.59829    0.03742   1.00
C5       0.03538    0.57056    0.06927   1.00
H2       0.11225    0.58752    0.04670   1.00
H2       -0.01036   0.57679    0.06969   1.00
H2       0.06644    0.59734    0.08288   1.00
C5       0.01409    0.49437    0.06974   1.00
H2       -0.01212   0.46965    0.05533   1.00
H2       -0.02121   0.46796    0.08262   1.00
H2       0.05917    0.48733    0.07193   1.00
C5       0.15950    0.92931    0.05714   1.00
H2       0.16668    0.98159    0.05609   1.00
H2       0.21132    0.93507    0.05745   1.00
C5       0.12002    0.89300    0.07651   1.00
H2       0.14406    0.92626    0.08991   1.00
C5       0.07553    0.29294    0.41251   1.00
H2       0.10834    0.27118    0.40844   1.00
H2       0.10659    0.34850    0.40944   1.00
C5       0.01080    0.26030    0.39908   1.00
H2       0.02161    0.28536    0.38394   1.00
H2       -0.03056   0.26531    0.40655   1.00
O_3      0.05417    0.36014    0.51444   1.00
C4       0.14017    0.31562    0.49817   1.00
C3c      0.13918    0.32359    0.47707   1.00
H1       0.15955    0.37406    0.47069   1.00
C3d      0.11427    0.24949    0.50614   1.00
C3       0.11123    0.26695    0.46393   1.00
O2       0.11958    0.27922    0.44339   1.00
C3       0.08522    0.19289    0.49313   1.00
H1       0.06380    0.14301    0.50001   1.00
C2       0.08313    0.19998    0.47178   1.00
C5       0.01416    0.31913    0.53072   1.00
H2       0.02041    0.34962    0.54465   1.00
H2       0.02754    0.27925    0.53455   1.00
C5       -0.06005   0.28469    0.52416   1.00
H2       -0.06593   0.25577    0.50992   1.00
H2       -0.07302   0.32496    0.52056   1.00
C5       -0.10714   0.23701    0.54078   1.00
H2       -0.10119   0.26546    0.55510   1.00
H2       -0.09580   0.19539    0.54390   1.00
H2       -0.16126   0.21346    0.53590   1.00
C5       0.17080    0.24472    0.53417   1.00
C5       0.06231    0.28037    0.43531   1.00
H2       0.21447    0.29697    0.53160   1.00
H2       0.18231    0.20727    0.52679   1.00
H2       0.05723    0.32235    0.44240   1.00
H2       0.01353    0.23166    0.43807   1.00
H2       -0.00739   0.20517    0.39620   1.00
H2       0.26361    0.31100    0.56750   1.00
H2       0.25969    0.23200    0.55985   1.00
C2       0.21741    0.48509    0.53907   1.00
C3       0.26216    0.46591    0.53025   1.00
O2       0.32637    0.48926    0.53826   1.00
C3       0.14794    0.44928    0.53327   1.00
H1       0.11274    0.46385    0.53935   1.00
C3a      0.23657    0.41099    0.51643   1.00
H1       0.27069    0.39444    0.51070   1.00
C3b      0.12224    0.39330    0.52003   1.00
C4       0.16658    0.37363    0.51152   1.00
O_3      0.10934    0.23845    0.52688   1.00
C5       0.37577    0.54289    0.52628   1.00
H2       0.37542    0.52587    0.51037   1.00
C5       0.44528    0.56504    0.53592   1.00
H2       0.36670    0.58694    0.52600   1.00
H2       0.46188    0.52831    0.53127   1.00
H2       0.43782    0.55989    0.55266   1.00
C5       0.49981    0.63847    0.53022   1.00
H2       0.50274    0.64410    0.51344   1.00
H2       0.55080    0.65067    0.53608   1.00
H2       0.48811    0.67670    0.53703   1.00
C5       0.16255    0.23094    0.55689   1.00
H2       0.12715    0.17543    0.55930   1.00
H2       0.13748    0.25820    0.56346   1.00
C5       0.23140    0.25426    0.56744   1.00
H2       0.22283    0.23706    0.58350   1.00
C5       0.73291    0.73106    0.42147   1.00
H2       0.74309    0.77759    0.41300   1.00
H2       0.67847    0.69310    0.41864   1.00
C5       0.77943    0.70454    0.41327   1.00
H2       0.75774    0.67418    0.39918   1.00
H2       0.78509    0.67200    0.42488   1.00
O_3      0.66719    0.72041    0.52494   1.00
C4       0.68420    0.82445    0.49810   1.00
C3c      0.68085    0.79862    0.47851   1.00
H1       0.63400    0.75511    0.47331   1.00
C3d      0.74543    0.88179    0.50447   1.00
C3       0.73776    0.82761    0.46546   1.00
O2       0.72824    0.80497    0.44572   1.00
C3       0.80257    0.90996    0.49167   1.00
H1       0.84913    0.95238    0.49748   1.00
C2       0.80030    0.88401    0.47189   1.00
C5       0.70986    0.74572    0.54213   1.00
H2       0.68055    0.72846    0.55660   1.00
H2       0.73925    0.80261    0.54212   1.00
C5       0.75940    0.71896    0.54136   1.00
H2       0.78733    0.73458    0.52665   1.00
H2       0.72954    0.66215    0.54158   1.00
C5       0.80949    0.74615    0.55921   1.00
H2       0.78192    0.73114    0.57395   1.00
H2       0.84099    0.80274    0.55861   1.00
H2       0.84432    0.72486    0.55864   1.00
C5       0.73037    0.95372    0.52526   1.00
C5       0.74363    0.75190    0.44385   1.00
H2       0.67529    0.92977    0.52144   1.00
H2       0.75985    0.99775    0.51485   1.00
H2       0.70867    0.70782    0.45359   1.00
H2       0.79705    0.76808    0.44858   1.00
H2       0.83098    0.74763    0.40914   1.00
H2       0.64523    0.98154    0.55160   1.00
H2       0.71375    1.05818    0.54006   1.00
C2       0.51541    0.73386    0.53927   1.00
C3       0.52095    0.78339    0.52520   1.00
O2       0.48316    0.81536    0.52773   1.00
C3       0.56473    0.71294    0.53866   1.00
H1       0.56093    0.67386    0.54888   1.00
C3a      0.57589    0.81188    0.51138   1.00
H1       0.58159    0.85251    0.50149   1.00
C3b      0.62050    0.74293    0.52534   1.00
C4       0.62652    0.79291    0.51157   1.00
O_3      0.75298    0.90596    0.52413   1.00
C5       0.42679    0.78718    0.51444   1.00
H2       0.44351    0.79298    0.49827   1.00
C5       0.38837    0.82593    0.51791   1.00
H2       0.39223    0.73196    0.51766   1.00
H2       0.41550    0.87535    0.50964   1.00
H2       0.39221    0.83859    0.53436   1.00
C5       0.31307    0.78521    0.51124   1.00
H2       0.31003    0.76839    0.49525   1.00
H2       0.28847    0.81709    0.51240   1.00
H2       0.28307    0.73973    0.52117   1.00
C5       0.74079    0.97976    0.54699   1.00
H2       0.79644    1.01370    0.54963   1.00
H2       0.72358    0.93536    0.55739   1.00
C5       0.70143    1.01744    0.55148   1.00
H2       0.71579    1.04176    0.56668   1.00
C5       0.26669    0.99773    0.42080   1.00
H2       0.21956    0.96140    0.41257   1.00
H2       0.30398    0.98041    0.41792   1.00
C5       0.29371    1.07051    0.41232   1.00
H2       0.32330    1.07809    0.39812   1.00
H2       0.32712    1.10906    0.42372   1.00
O_3      0.28138    0.94717    0.52439   1.00
C4       0.17554    0.85975    0.49810   1.00
C3c      0.20057    0.88105    0.47837   1.00
H1       0.24345    0.87676    0.47307   1.00
C3d      0.11901    0.86486    0.50462   1.00
C3       0.17160    0.90896    0.46533   1.00
O2       0.19332    0.92088    0.44548   1.00
C3       0.09087    0.89383    0.49180   1.00
H1       0.04913    0.89894    0.49772   1.00
C2       0.11604    0.91632    0.47189   1.00
C5       0.25734    0.96588    0.54160   1.00
H2       0.27498    0.95419    0.55605   1.00
H2       0.20047    0.93903    0.54182   1.00
C5       0.28500    1.04230    0.54053   1.00
H2       0.26898    1.05421    0.52583   1.00
H2       0.34179    1.06859    0.54051   1.00
C5       0.25922    1.06666    0.55838   1.00
H2       0.27463    1.05449    0.57311   1.00
H2       0.20266    1.04221    0.55801   1.00
H2       0.28117    1.12284    0.55758   1.00
C5       0.04732    0.77933    0.52586   1.00
C5       0.24692    0.98895    0.44327   1.00
H2       0.07043    0.74742    0.52207   1.00
H2       0.00291    0.76483    0.51561   1.00
H2       0.29126    0.99794    0.45286   1.00
H2       0.23165    1.02694    0.44792   1.00
H2       0.25088    1.07948    0.40827   1.00
H2       0.01927    0.66725    0.55261   1.00
H2       -0.05745   0.65967    0.54130   1.00
C2       0.26623    0.78162    0.53926   1.00
C3       0.21574    0.73737    0.52546   1.00
O2       0.18309    0.66770    0.52829   1.00
C3       0.28801    0.85204    0.53839   1.00
H1       0.32781    0.88748    0.54839   1.00
C3a      0.18722    0.76377    0.51163   1.00
H1       0.14590    0.72871    0.50196   1.00
C3b      0.25801    0.87780    0.52506   1.00
C4       0.20709    0.83361    0.51157   1.00
O_3      0.09571    0.84944    0.52439   1.00
C5       0.21000    0.63822    0.51500   1.00
H2       0.20363    0.64851    0.49882   1.00
C5       0.17055    0.56123    0.51882   1.00
H2       0.26526    0.65836    0.51801   1.00
H2       0.12078    0.53912    0.51075   1.00
H2       0.15864    0.55335    0.53533   1.00
C5       0.21012    0.52546    0.51215   1.00
H2       0.22625    0.53830    0.49607   1.00
H2       0.17769    0.46910    0.51356   1.00
H2       0.25596    0.54085    0.52190   1.00
C5       0.02228    0.76506    0.54770   1.00
H2       -0.01094   0.78758    0.55037   1.00
H2       0.06725    0.79229    0.55790   1.00
C5       -0.01605   0.68824    0.55253   1.00
H2       -0.03961   0.67933    0.56782   1.00
C5       0.06078    0.14015    0.99744   1.00
H2       0.02836    0.08387    0.99854   1.00
H2       0.06494    0.15230    0.98100   1.00
C5       0.02595    0.17442    1.00878   1.00
H2       -0.01384   0.17548    0.99912   1.00
H2       0.06452    0.22758    1.01302   1.00
O_3      0.41261    0.27888    1.00289   1.00
C4       0.31556    0.13882    1.00183   1.00
C3c      0.25379    0.13461    0.99616   1.00
H1       0.24897    0.15206    0.98132   1.00
C3d      0.32046    0.11490    1.02113   1.00
C3       0.19784    0.10890    1.00954   1.00
O2       0.13664    0.09861    1.00207   1.00
C3       0.26529    0.09048    1.03463   1.00
H1       0.27224    0.07496    1.04952   1.00
C2       0.20269    0.08656    1.02922   1.00
C5       0.45849    0.29636    1.01929   1.00
H2       0.51272    0.32361    1.01422   1.00
H2       0.44912    0.25009    1.02793   1.00
C5       0.44728    0.34326    1.03325   1.00
H2       0.39264    0.31676    1.03786   1.00
H2       0.45739    0.38954    1.02451   1.00
C5       0.49366    0.36287    1.05194   1.00
H2       0.54829    0.38893    1.04743   1.00
H2       0.48197    0.31691    1.06105   1.00
H2       0.48582    0.39835    1.06173   1.00
C5       0.38730    0.06591    1.02195   1.00
C5       0.13042    0.15672    1.00587   1.00
H2       0.38756    0.06191    1.00514   1.00
H2       0.34473    0.01731    1.02813   1.00
H2       0.17194    0.20209    0.99796   1.00
H2       0.13390    0.16937    1.02238   1.00
H2       -0.00064   0.14534    1.02277   1.00
H2       0.48921    0.04145    1.00380   1.00
H2       0.43306    -0.02612   1.02104   1.00
C2       0.48991    0.22353    0.96271   1.00
C3       0.44003    0.15386    0.96117   1.00
O2       0.45424    0.10912    0.95102   1.00
C3       0.47897    0.26459    0.97667   1.00
H1       0.51531    0.31847    0.97784   1.00
C3a      0.38195    0.12668    0.97380   1.00
H1       0.34619    0.07249    0.97325   1.00
C3b      0.42226    0.23696    0.98965   1.00
C4       0.37324    0.16748    0.98832   1.00
O_3      0.38168    0.12266    1.02801   1.00
C5       0.42409    0.09474    0.93160   1.00
H2       0.36754    0.07149    0.93261   1.00
C5       0.44114    0.04419    0.92151   1.00
H2       0.44488    0.14195    0.92223   1.00
H2       0.40573    -0.00771   0.92754   1.00
H2       0.49331    0.05744    0.92654   1.00
C5       0.43723    0.04477    0.89817   1.00
H2       0.38663    0.03682    0.89347   1.00
H2       0.44426    0.00355    0.89149   1.00
H2       0.47840    0.09392    0.89172   1.00
C5       0.45459    0.07605    1.03016   1.00
H2       0.44978    0.06824    1.04689   1.00
H2       0.49462    0.13011    1.02751   1.00
C5       0.47519    0.02773    1.02004   1.00
H2       0.52046    0.03150    1.02784   1.00
C5       0.71191    0.75578    1.07027   1.00
H2       0.75112    0.75971    1.08116   1.00
H2       0.66738    0.70376    1.07228   1.00
C5       0.69210    0.81032    1.07540   1.00
H2       0.65444    0.79281    1.08803   1.00
H2       0.66960    0.82091    1.06183   1.00
O_3      0.74149    0.68101    0.96966   1.00
C4       0.82436    0.68410    1.00194   1.00
C3c      0.79118    0.68583    1.01974   1.00
H1       0.74183    0.64296    1.02353   1.00
C3d      0.88907    0.74006    0.99743   1.00
C3       0.82040    0.74285    1.03273   1.00
O2       0.78896    0.73748    1.05105   1.00
C3       0.91771    0.79746    1.01014   1.00
H1       0.96634    0.84014    1.00568   1.00
C2       0.88453    0.80036    1.02808   1.00
C5       0.77969    0.72159    0.95308   1.00
H2       0.76632    0.69214    0.93862   1.00
H2       0.83552    0.74392    0.95573   1.00
C5       0.76379    0.77896    0.95080   1.00
H2       0.77534    0.80722    0.96544   1.00
H2       0.70805    0.75611    0.94797   1.00
C5       0.80523    0.82716    0.93348   1.00
H2       0.79431    0.79918    0.91884   1.00
H2       0.86087    0.85182    0.93663   1.00
H2       0.79182    0.86789    0.93176   1.00
C5       0.96091    0.71115    0.98179   1.00
C5       0.74322    0.76258    1.04921   1.00
H2       0.92833    0.65626    0.98565   1.00
H2       1.00022    0.73626    0.99389   1.00
H2       0.70263    0.73166    1.03793   1.00
H2       0.76902    0.81689    1.04404   1.00
H2       0.73734    0.85882    1.08064   1.00
H2       0.98416    0.61399    0.95998   1.00
H2       1.05866    0.67571    0.97407   1.00
C2       0.73478    0.51553    0.96068   1.00
C3       0.77317    0.51434    0.97738   1.00
O2       0.79658    0.46861    0.97792   1.00
C3       0.72413    0.57172    0.95860   1.00
H1       0.69351    0.57332    0.94627   1.00
C3a      0.80122    0.56939    0.99117   1.00
H1       0.83371    0.56955    1.00322   1.00
C3b      0.75391    0.62738    0.97197   1.00
C4       0.79293    0.62663    0.98839   1.00
O_3      0.92150    0.74309    0.97935   1.00
C5       0.75539    0.41358    0.99088   1.00
H2       0.75556    0.43151    1.00667   1.00
C5       0.78521    0.36602    0.99091   1.00
H2       0.70173    0.38526    0.98532   1.00
H2       0.82997    0.38763    1.00129   1.00
H2       0.80516    0.36713    0.97538   1.00
C5       0.73282    0.29236    0.99712   1.00
H2       0.70951    0.29275    1.01191   1.00
H2       0.75772    0.26084    0.99862   1.00
H2       0.69190    0.26696    0.98543   1.00
C5       0.99651    0.71684    0.96170   1.00
H2       1.03755    0.77080    0.95960   1.00
H2       0.95895    0.70493    0.94924   1.00
C5       1.02571    0.66839    0.96070   1.00
H2       1.05726    0.67896    0.94681   1.00
C5       0.99688    0.26622    1.07933   1.00
H2       0.96056    0.21897    1.08752   1.00
H2       0.97939    0.30336    1.08222   1.00
C5       1.06960    0.29334    1.08788   1.00
H2       1.07696    0.32276    1.10210   1.00
H2       1.10822    0.32693    1.07652   1.00
O_3      0.94724    0.28174    0.97572   1.00
C4       0.85975    0.17554    1.00190   1.00
C3c      0.88080    0.20040    1.02165   1.00
H1       0.87632    0.24315    1.02698   1.00
C3d      0.86511    0.11917    0.99535   1.00
C3       0.90872    0.17144    1.03470   1.00
O2       0.92039    0.19297    1.05456   1.00
C3       0.89409    0.09105    1.00817   1.00
H1       0.89939    0.04944    1.00223   1.00
C2       0.91633    0.11605    1.02811   1.00
C5       0.96623    0.25797    0.95851   1.00
H2       0.95462    0.27568    0.94406   1.00
H2       0.93952    0.20111    0.95824   1.00
C5       1.04267    0.28581    0.95965   1.00
H2       1.05450    0.26971    0.97434   1.00
H2       1.06883    0.34259    0.95971   1.00
C5       1.06733    0.26032    0.94180   1.00
H2       1.05525    0.27581    0.92707   1.00
H2       1.04301    0.20377    0.94212   1.00
H2       1.12352    0.28240    0.94264   1.00
C5       0.77989    0.04754    0.97402   1.00
C5       0.98837    0.24667    1.05685   1.00
H2       0.74781    0.07048    0.97780   1.00
H2       0.76540    0.00305    0.98423   1.00
H2       0.99734    0.29107    1.04729   1.00
H2       1.02652    0.23159    1.05221   1.00
H2       1.07867    0.25056    1.09191   1.00
H2       0.66799    0.01945    0.94719   1.00
H2       0.66052    -0.05728   0.95844   1.00
C2       0.78164    0.26625    0.96074   1.00
C3       0.73733    0.21557    0.97448   1.00
O2       0.66769    0.18278    0.97160   1.00
C3       0.85208    0.28821    0.96167   1.00
H1       0.88756    0.32815    0.95172   1.00
C3a      0.76372    0.18703    0.98831   1.00
H1       0.72864    0.14558    0.99794   1.00
C3b      0.87785    0.25820    0.97499   1.00
C4       0.83360    0.20709    0.98843   1.00
O_3      0.84994    0.09606    0.97556   1.00
C5       0.63794    0.20942    0.98488   1.00
H2       0.64811    0.20294    1.00106   1.00
C5       0.56100    0.16983    0.98100   1.00
H2       0.65797    0.26469    0.98191   1.00
H2       0.53893    0.11999    0.98902   1.00
H2       0.55331    0.15808    0.96448   1.00
C5       0.52498    0.20916    0.98767   1.00
H2       0.53762    0.22515    1.00376   1.00
H2       0.46864    0.17663    0.98620   1.00
H2       0.54035    0.25508    0.97795   1.00
C5       0.76589    0.02271    0.95215   1.00
H2       0.78857    -0.01037   0.94948   1.00
H2       0.79312    0.06779    0.94200   1.00
C5       0.68912    -0.01576   0.94726   1.00
H2       0.68042    -0.03915   0.93195   1.00
C5       0.65137    1.05885    0.91448   1.00
H2       0.69941    1.10539    0.91005   1.00
H2       0.66182    1.01601    0.91319   1.00
C5       0.63322    1.06609    0.93663   1.00
H2       0.66281    1.05341    0.94752   1.00
H2       0.57778    1.03141    0.93935   1.00
O_3      0.39591    0.90681    0.84167   1.00
C4       0.52767    1.01807    0.83504   1.00
C3c      0.56595    1.02153    0.85222   1.00
H1       0.57546    0.98021    0.85545   1.00
C3d      0.51670    1.07290    0.83094   1.00
C3       0.59166    1.07748    0.86559   1.00
O2       0.63552    1.08121    0.88064   1.00
C3       0.54111    1.12808    0.84444   1.00
H1       0.52937    1.16779    0.84105   1.00
C2       0.57929    1.13205    0.86200   1.00
C5       0.34411    0.91968    0.83505   1.00
H2       0.30829    0.88014    0.82423   1.00
H2       0.36620    0.97044    0.82748   1.00
C5       0.30409    0.91912    0.85362   1.00
H2       0.34020    0.95730    0.86468   1.00
H2       0.28175    0.86803    0.86094   1.00
C5       0.24800    0.93518    0.84785   1.00
H2       0.21202    0.89753    0.83670   1.00
H2       0.27042    0.98715    0.84118   1.00
H2       0.21834    0.93306    0.86155   1.00
C5       0.51419    1.09422    0.79723   1.00
C5       0.59858    1.05119    0.89863   1.00
H2       0.53670    1.06226    0.79284   1.00
H2       0.55619    1.14807    0.79899   1.00
H2       0.56111    0.99616    0.89601   1.00
H2       0.56941    1.07601    0.90406   1.00
H2       0.64650    1.11972    0.94003   1.00
H2       0.50318    1.05301    0.75530   1.00
H2       0.54976    1.14509    0.75847   1.00
C2       0.44167    0.84592    0.79506   1.00
C3       0.50919    0.89950    0.79207   1.00
O2       0.54191    0.90585    0.77387   1.00
C3       0.40508    0.84922    0.81201   1.00
H1       0.35394    0.80819    0.81502   1.00
C3a      0.53769    0.95532    0.80559   1.00
H1       0.58799    0.99773    0.80243   1.00
C3b      0.43279    0.90582    0.82504   1.00
C4       0.49952    0.95953    0.82187   1.00
O_3      0.47506    1.06967    0.81511   1.00
C5       0.58812    0.88153    0.77578   1.00
H2       0.62748    0.91050    0.78760   1.00
C5       0.62297    0.89136    0.75517   1.00
H2       0.56098    0.82638    0.77987   1.00
H2       0.66381    0.94569    0.75378   1.00
H2       0.58446    0.88242    0.74326   1.00
C5       0.65252    0.84369    0.75203   1.00
H2       0.68668    0.84943    0.76490   1.00
H2       0.68230    0.85625    0.73767   1.00
H2       0.61116    0.78920    0.75080   1.00
C5       0.46667    1.09091    0.78038   1.00
H2       0.45354    1.13155    0.78307   1.00
H2       0.41829    1.04114    0.78154   1.00
C5       0.49854    1.09846    0.75923   1.00
H2       0.46569    1.10296    0.74753   1.00
C5       -0.04529   0.56585    0.91919   1.00
H2       -0.08791   0.57571    0.91632   1.00
H2       0.00174    0.61670    0.91943   1.00
C5       -0.05591   0.52997    0.93994   1.00
H2       -0.03845   0.56769    0.95256   1.00
H2       -0.02691   0.50225    0.94047   1.00
O_3      0.08158    0.47021    0.83712   1.00
C4       -0.01802   0.50973    0.83506   1.00
C3c      -0.01659   0.53890    0.85398   1.00
H1       0.02861    0.58528    0.85860   1.00
C3d      -0.07777   0.44982    0.82920   1.00
C3       -0.07267   0.50848    0.86731   1.00
O2       -0.07071   0.54424    0.88442   1.00
C3       -0.13321   0.41869    0.84260   1.00
H1       -0.17703   0.37150    0.83775   1.00
C2       -0.13235   0.44711    0.86188   1.00
C5       0.06071    0.40701    0.82754   1.00
H2       0.09788    0.41059    0.81584   1.00
H2       0.01000    0.38717    0.82010   1.00
C5       0.05536    0.35694    0.84378   1.00
H2       0.01967    0.35481    0.85577   1.00
H2       0.10640    0.37694    0.85097   1.00
C5       0.03048    0.28592    0.83475   1.00
H2       0.06563    0.28776    0.82267   1.00
H2       -0.02148   0.26491    0.82819   1.00
H2       0.02833    0.25041    0.84676   1.00
C5       -0.10022   0.44311    0.79529   1.00
C5       -0.04432   0.52468    0.90090   1.00
H2       -0.06300   0.49809    0.79287   1.00
H2       -0.15158   0.43708    0.79805   1.00
H2       0.00895    0.53694    0.89756   1.00
H2       -0.07489   0.46878    0.90417   1.00
H2       -0.11110   0.49321    0.94281   1.00
H2       -0.05726   0.48858    0.75420   1.00
H2       -0.14862   0.45168    0.75774   1.00
C2       0.15353    0.59552    0.79486   1.00
C3       0.10614    0.61873    0.79428   1.00
O2       0.10430    0.65565    0.77789   1.00
C3       0.14458    0.54626    0.80959   1.00
H1       0.18094    0.52875    0.81076   1.00
C3a      0.05060    0.59131    0.80790   1.00
H1       0.01265    0.60674    0.80650   1.00
C3b      0.08811    0.51751    0.82266   1.00
C4       0.04047    0.53986    0.82187   1.00
O_3      -0.07994   0.41629    0.81143   1.00
C5       0.13663    0.72563    0.78277   1.00
H2       0.11118    0.73501    0.79589   1.00
C5       0.13143    0.76270    0.76404   1.00
H2       0.19136    0.74579    0.78661   1.00
H2       0.07946    0.75646    0.76362   1.00
H2       0.13572    0.73591    0.75043   1.00
C5       0.18632    0.83890    0.76357   1.00
H2       0.18481    0.86363    0.77796   1.00
H2       0.17741    0.86528    0.75068   1.00
H2       0.23844    0.84595    0.76138   1.00
C5       -0.10311   0.40395    0.77620   1.00
H2       -0.14820   0.35167    0.77725   1.00
H2       -0.05704   0.39821    0.77589   1.00
C5       -0.10629   0.44023    0.75683   1.00
H2       -0.11550   0.40696    0.74342   1.00
C5       0.43344    0.38787    0.91910   1.00
H2       0.42377    0.33548    0.91618   1.00
H2       0.38252    0.38389    0.91930   1.00
C5       0.46907    0.41298    0.93989   1.00
H2       0.43123    0.39249    0.95247   1.00
H2       0.49664    0.46970    0.94047   1.00
O_3      0.52937    0.61123    0.83723   1.00
C4       0.49028    0.47225    0.83506   1.00
C3c      0.46095    0.44424    0.85394   1.00
H1       0.41444    0.44286    0.85854   1.00
C3d      0.55035    0.47267    0.82924   1.00
C3       0.49136    0.41858    0.86727   1.00
O2       0.45547    0.38452    0.88434   1.00
C3       0.58146    0.44835    0.84264   1.00
H1       0.62878    0.45194    0.83782   1.00
C2       0.55289    0.42053    0.86189   1.00
C5       0.59263    0.65382    0.82773   1.00
H2       0.58906    0.68747    0.81604   1.00
H2       0.61269    0.62314    0.82028   1.00
C5       0.64246    0.69844    0.84402   1.00
H2       0.64458    0.66482    0.85599   1.00
H2       0.62225    0.72929    0.85123   1.00
C5       0.71354    0.74486    0.83507   1.00
H2       0.71172    0.77824    0.82301   1.00
H2       0.73476    0.71409    0.82850   1.00
H2       0.74886    0.77814    0.84712   1.00
C5       0.55748    0.45735    0.79532   1.00
C5       0.47474    0.43029    0.90086   1.00
H2       0.50249    0.43946    0.79285   1.00
H2       0.56364    0.41209    0.79805   1.00
H2       0.46235    0.47121    0.89754   1.00
H2       0.53061    0.45572    0.90418   1.00
H2       0.50594    0.39468    0.94276   1.00
H2       0.51238    0.45515    0.75420   1.00
H2       0.54950    0.40087    0.75773   1.00
C2       0.40448    0.55801    0.79486   1.00
C3       0.38147    0.48746    0.79423   1.00
O2       0.34480    0.44882    0.77779   1.00
C3       0.45353    0.59826    0.80965   1.00
H1       0.47087    0.65208    0.81087   1.00
C3a      0.40889    0.45932    0.80784   1.00
H1       0.39363    0.40600    0.80639   1.00
C3b      0.48228    0.57054    0.82273   1.00
C4       0.46014    0.50060    0.82187   1.00
O_3      0.58402    0.50429    0.81151   1.00
C5       0.27478    0.41094    0.78260   1.00
H2       0.26536    0.37599    0.79568   1.00
C5       0.23798    0.36883    0.76381   1.00
H2       0.25442    0.44534    0.78645   1.00
H2       0.24440    0.32320    0.76337   1.00
H2       0.26486    0.40010    0.75025   1.00
C5       0.16174    0.34730    0.76328   1.00
H2       0.13690    0.32087    0.77765   1.00
H2       0.13557    0.31212    0.75036   1.00
H2       0.15455    0.39229    0.76112   1.00
C5       0.59679    0.49391    0.77628   1.00
H2       0.64913    0.50125    0.77737   1.00
H2       0.60237    0.54565    0.77601   1.00
C5       0.56079    0.45460    0.75686   1.00
H2       0.59417    0.47888    0.74349   1.00
C5       0.63565    0.39095    0.34484   1.00
H2       0.65444    0.35664    0.33964   1.00
H2       0.63266    0.38663    0.36163   1.00
C5       0.68679    0.46509    0.33840   1.00
H2       0.73036    0.48917    0.34920   1.00
H2       0.66084    0.49581    0.33795   1.00
O_3      0.28632    0.26889    0.34014   1.00
C4       0.35089    0.19308    0.33144   1.00
C3c      0.41792    0.23219    0.33868   1.00
H1       0.42684    0.24202    0.35476   1.00
C3d      0.34043    0.18004    0.31047   1.00
C3       0.47418    0.25995    0.32540   1.00
O2       0.53842    0.29051    0.33378   1.00
C3       0.39624    0.20869    0.29716   1.00
H1       0.38554    0.19931    0.28113   1.00
C2       0.46431    0.24899    0.30421   1.00
C5       0.24261    0.26583    0.32439   1.00
H2       0.18984    0.24825    0.32990   1.00
H2       0.23974    0.23071    0.31207   1.00
C5       0.27164    0.33729    0.31579   1.00
H2       0.32505    0.35562    0.31080   1.00
H2       0.27368    0.37177    0.32817   1.00
C5       0.22834    0.33813    0.29802   1.00
H2       0.17481    0.31943    0.30286   1.00
H2       0.22821    0.30556    0.28536   1.00
H2       0.24947    0.39101    0.29222   1.00
C5       0.25047    0.07536    0.30269   1.00
C5       0.56406    0.36138    0.33582   1.00
H2       0.24675    0.05635    0.31846   1.00
H2       0.28367    0.06168    0.29370   1.00
H2       0.53079    0.37090    0.34621   1.00
H2       0.56626    0.38653    0.32101   1.00
H2       0.70925    0.46667    0.32317   1.00
H2       0.12650    -0.04678   0.31421   1.00
H2       0.17039    -0.06072   0.29329   1.00
C2       0.17735    0.11377    0.37080   1.00
C3       0.21114    0.07645    0.36750   1.00
O2       0.17993    0.00825    0.37254   1.00
C3       0.20425    0.17871    0.36164   1.00
H1       0.18062    0.20930    0.36429   1.00
C3a      0.26922    0.10364    0.35488   1.00
H1       0.29219    0.07279    0.35157   1.00
C3b      0.26071    0.20465    0.34857   1.00
C4       0.29361    0.16704    0.34506   1.00
O_3      0.27529    0.14624    0.30240   1.00
C5       0.20663    -0.00032   0.39093   1.00
H2       0.26272    0.01989    0.38978   1.00
C5       0.17044    -0.07697   0.39526   1.00
H2       0.19694    0.02621    0.40363   1.00
H2       0.19458    -0.09997   0.38584   1.00
H2       0.11690    -0.09934   0.38982   1.00
C5       0.17197    -0.09339   0.41789   1.00
H2       0.22545    -0.06627   0.42345   1.00
H2       0.15034    -0.14918   0.42018   1.00
H2       0.14047    -0.07827   0.42724   1.00
C5       0.17946    0.04050    0.29336   1.00
H2       0.18456    0.05027    0.27672   1.00
H2       0.15127    0.06510    0.29958   1.00
C5       0.13999    -0.03657   0.29781   1.00
H2       0.09156    -0.06136   0.28906   1.00
C5       0.59647    0.38670    0.33853   1.00
H2       0.57403    0.39170    0.32411   1.00
H2       0.57365    0.40285    0.35070   1.00
C5       0.57739    0.31145    0.34159   1.00
H2       0.52500    0.28099    0.34792   1.00
H2       0.61420    0.30848    0.35214   1.00
O_3      0.91980    0.64946    0.36480   1.00
C4       0.84272    0.64945    0.33130   1.00
C3c      0.77643    0.59474    0.33446   1.00
H1       0.74704    0.59566    0.34725   1.00
C3d      0.87978    0.64770    0.31437   1.00
C3       0.74739    0.53781    0.32143   1.00
O2       0.67954    0.49030    0.32402   1.00
C3       0.85151    0.59050    0.30159   1.00
H1       0.88277    0.59037    0.28922   1.00
C2       0.78482    0.53440    0.30469   1.00
C5       0.98622    0.66461    0.35935   1.00
H2       1.02627    0.70827    0.36818   1.00
H2       0.99595    0.67720    0.34288   1.00
C5       0.99195    0.60181    0.36377   1.00
H2       0.95071    0.55774    0.35539   1.00
H2       0.98278    0.59009    0.38027   1.00
C5       1.06214    0.61308    0.35758   1.00
H2       1.10359    0.65732    0.36578   1.00
H2       1.07038    0.62244    0.34097   1.00
H2       1.06590    0.56721    0.36133   1.00
C5       0.94934    0.75192    0.30023   1.00
C5       0.67302    0.43736    0.33686   1.00
H2       0.92410    0.77601    0.30855   1.00
H2       0.92434    0.73443    0.28512   1.00
H2       0.69473    0.45822    0.35213   1.00
H2       0.70035    0.41135    0.33085   1.00
H2       0.57726    0.28697    0.32685   1.00
H2       1.01982    0.89901    0.30230   1.00
H2       1.00125    0.86708    0.27643   1.00
C2       0.93665    0.82034    0.37165   1.00
C3       0.89523    0.81991    0.35558   1.00
O2       0.89796    0.87956    0.34954   1.00
C3       0.94327    0.76201    0.37458   1.00
H1       0.97317    0.76002    0.38705   1.00
C3a      0.86320    0.76274    0.34263   1.00
H1       0.83486    0.76478    0.32971   1.00
C3b      0.91314    0.70615    0.36128   1.00
C4       0.87284    0.70623    0.34513   1.00
O_3      0.94704    0.69777    0.31146   1.00
C5       0.84128    0.88246    0.35720   1.00
H2       0.79235    0.83856    0.35168   1.00
C5       0.84743    0.94918    0.34959   1.00
H2       0.84106    0.88208    0.37411   1.00
H2       0.82929    0.94176    0.33360   1.00
H2       0.90270    0.98814    0.34927   1.00
C5       0.80768    0.97376    0.36279   1.00
H2       0.75379    0.93225    0.36425   1.00
H2       0.80861    1.01905    0.35585   1.00
H2       0.83089    0.98973    0.37821   1.00
C5       1.02406    0.80500    0.29708   1.00
H2       1.04623    0.78471    0.28587   1.00
H2       1.05150    0.81152    0.31167   1.00
C5       1.03324    0.87389    0.29000   1.00
H2       1.08737    0.90896    0.28584   1.00
C5       0.77955    0.39712    0.34004   1.00
H2       0.80840    0.42190    0.32599   1.00
H2       0.81683    0.41946    0.35266   1.00
C5       0.72124    0.41331    0.34278   1.00
H2       0.74076    0.46471    0.34963   1.00
H2       0.68087    0.37446    0.35277   1.00
O_3      0.72714    0.07480    0.36366   1.00
C4       0.80676    0.15731    0.33131   1.00
C3c      0.81560    0.22233    0.33499   1.00
H1       0.84374    0.25071    0.34821   1.00
C3d      0.77078    0.12160    0.31384   1.00
C3       0.78769    0.25132    0.32195   1.00
O2       0.80545    0.31825    0.32515   1.00
C3       0.74181    0.14976    0.30104   1.00
H1       0.71258    0.11945    0.28822   1.00
C2       0.74962    0.21514    0.30466   1.00
C5       0.67818    0.00843    0.35737   1.00
H2       0.68232    -0.03176   0.36596   1.00
H2       0.68351    0.00101    0.34088   1.00
C5       0.60809    -0.00031   0.36121   1.00
H2       0.60465    0.04101    0.35309   1.00
H2       0.60311    0.00657    0.37774   1.00
C5       0.55159    -0.07056   0.35410   1.00
H2       0.55502    -0.11207   0.36205   1.00
H2       0.55510    -0.07657   0.33747   1.00
H2       0.50074    -0.07658   0.35744   1.00
C5       0.81051    0.05647    0.29952   1.00
C5       0.75635    0.32133    0.33766   1.00
H2       0.85872    0.08205    0.30839   1.00
H2       0.81906    0.08309    0.28465   1.00
H2       0.75444    0.29816    0.35276   1.00
H2       0.70385    0.29326    0.33105   1.00
H2       0.69827    0.41432    0.32787   1.00
H2       0.89097    -0.00995   0.30171   1.00
H2       0.87986    0.01089    0.27589   1.00
C2       0.88377    0.06327    0.37160   1.00
C3       0.92588    0.10736    0.35613   1.00
O2       0.98469    0.10757    0.35053   1.00
C3       0.81753    0.05397    0.37397   1.00
H1       0.78468    0.02194    0.38599   1.00
C3a      0.90065    0.13938    0.34321   1.00
H1       0.93209    0.16987    0.33073   1.00
C3b      0.79182    0.08414    0.36069   1.00
C4       0.83336    0.12712    0.34513   1.00
O_3      0.75624    0.05540    0.31035   1.00
C5       1.04220    0.16444    0.35902   1.00
H2       1.04612    0.21325    0.35387   1.00
C5       1.10505    0.16163    0.35185   1.00
H2       1.03995    0.16259    0.37591   1.00
H2       1.11724    0.18176    0.33607   1.00
H2       1.09063    0.10689    0.35103   1.00
C5       1.16738    0.20140    0.36580   1.00
H2       1.17771    0.25450    0.36772   1.00
H2       1.21343    0.20302    0.35921   1.00
H2       1.15900    0.17651    0.38100   1.00
C5       0.79175    -0.01719   0.29571   1.00
H2       0.75076    -0.03915   0.28403   1.00
H2       0.76971    -0.04664   0.30994   1.00
C5       0.85377    -0.02307   0.28904   1.00
H2       0.83698    -0.07631   0.28437   1.00
C5       0.82853    0.63271    0.74445   1.00
H2       0.84978    0.59795    0.74524   1.00
H2       0.87310    0.68490    0.74285   1.00
C5       0.78120    0.61435    0.72576   1.00
H2       0.81143    0.63719    0.71171   1.00
H2       0.74487    0.63343    0.72788   1.00
O_3      0.74167    0.72659    0.83530   1.00
C4       0.80663    0.64875    0.83157   1.00
C3c      0.82776    0.65539    0.81126   1.00
H1       0.86560    0.70475    0.80553   1.00
C3d      0.75798    0.58379    0.83881   1.00
C3       0.79996    0.59908    0.79799   1.00
O2       0.82904    0.60775    0.77910   1.00
C3       0.72925    0.52788    0.82554   1.00
H1       0.69036    0.47956    0.83159   1.00
C2       0.74950    0.53384    0.80490   1.00
C5       0.68312    0.69497    0.84774   1.00
H2       0.68520    0.72878    0.86034   1.00
H2       0.67653    0.64685    0.85449   1.00
C5       0.62177    0.67831    0.83451   1.00
H2       0.62078    0.64609    0.82160   1.00
H2       0.62859    0.72676    0.82801   1.00
C5       0.55536    0.64143    0.84674   1.00
H2       0.55620    0.67312    0.85974   1.00
H2       0.54732    0.59191    0.85265   1.00
H2       0.51125    0.63102    0.83693   1.00
C5       0.77346    0.56467    0.87184   1.00
C5       0.79362    0.62547    0.76493   1.00
H2       0.82599    0.60939    0.87227   1.00
H2       0.77650    0.51848    0.86771   1.00
H2       0.79719    0.67474    0.76933   1.00
H2       0.73823    0.58629    0.76395   1.00
H2       0.75190    0.55800    0.72320   1.00
H2       0.83492    0.61446    0.91111   1.00
H2       0.81285    0.52655    0.90665   1.00
C2       0.88354    0.81936    0.87203   1.00
C3       0.91898    0.78328    0.86959   1.00
O2       0.96779    0.79077    0.88350   1.00
C3       0.82463    0.79983    0.86011   1.00
H1       0.79736    0.82754    0.86123   1.00
C3a      0.89415    0.72808    0.85588   1.00
H1       0.91963    0.69854    0.85504   1.00
C3b      0.79884    0.74356    0.84698   1.00
C4       0.83353    0.70708    0.84480   1.00
O_3      0.73171    0.57548    0.85822   1.00
C5       1.03367    0.83414    0.87568   1.00
H2       1.04230    0.81332    0.86133   1.00
C5       1.08460    0.83888    0.89177   1.00
H2       1.04165    0.88603    0.87260   1.00
H2       1.08922    0.79227    0.89076   1.00
H2       1.06200    0.83744    0.90690   1.00
C5       1.15517    0.90356    0.88963   1.00
H2       1.17453    0.90692    0.87394   1.00
H2       1.19229    0.90237    0.90046   1.00
H2       1.15276    0.95062    0.89317   1.00
C5       0.74197    0.55456    0.89285   1.00
H2       0.69475    0.50367    0.89334   1.00
H2       0.72609    0.59341    0.89508   1.00
C5       0.79195    0.56091    0.90969   1.00
H2       0.76516    0.54628    0.92453   1.00
C5       0.57587    0.43399    0.82500   1.00
H2       0.61592    0.41977    0.82686   1.00
H2       0.56831    0.44982    0.84028   1.00
C5       0.60079    0.49402    0.80986   1.00
H2       0.63491    0.54343    0.81752   1.00
H2       0.55640    0.49575    0.80329   1.00
O_3      0.23743    0.17224    0.82391   1.00
C4       0.35123    0.15672    0.83155   1.00
C3c      0.40620    0.22281    0.83480   1.00
H1       0.40566    0.25188    0.84773   1.00
C3d      0.35339    0.11933    0.81477   1.00
C3       0.46200    0.25276    0.82136   1.00
O2       0.51752    0.31409    0.82684   1.00
C3       0.40826    0.14949    0.80115   1.00
H1       0.40653    0.11976    0.78810   1.00
C2       0.46392    0.21655    0.80408   1.00
C5       0.19480    0.12818    0.80852   1.00
H2       0.14094    0.09642    0.81367   1.00
H2       0.21312    0.09330    0.80323   1.00
C5       0.19654    0.17214    0.79087   1.00
H2       0.25057    0.20527    0.78609   1.00
H2       0.17755    0.20629    0.79627   1.00
C5       0.15324    0.12801    0.77310   1.00
H2       0.09931    0.09445    0.77780   1.00
H2       0.17359    0.09560    0.76723   1.00
H2       0.15392    0.16103    0.76052   1.00
C5       0.30419    0.00500    0.82052   1.00
C5       0.51171    0.36843    0.81845   1.00
H2       0.30328    0.01138    0.83722   1.00
H2       0.35211    0.00524    0.81641   1.00
H2       0.46520    0.36758    0.82445   1.00
H2       0.50754    0.36564    0.80153   1.00
H2       0.63136    0.48920    0.79732   1.00
H2       0.21738    -0.11452   0.84437   1.00
H2       0.28209    -0.12264   0.83036   1.00
C2       0.17665    0.06580    0.87056   1.00
C3       0.23459    0.06042    0.87528   1.00
O2       0.23010    0.01280    0.88919   1.00
C3       0.17932    0.10447    0.85337   1.00
H1       0.13649    0.11104    0.84964   1.00
C3a      0.29251    0.09184    0.86260   1.00
H1       0.33494    0.08399    0.86576   1.00
C3b      0.23615    0.13381    0.84043   1.00
C4       0.29330    0.12754    0.84496   1.00
O_3      0.29831    0.05616    0.81004   1.00
C5       0.25794    0.04447    0.90795   1.00
H2       0.31269    0.08457    0.90636   1.00
C5       0.25212    -0.01122   0.92236   1.00
H2       0.22927    0.06833    0.91436   1.00
H2       0.29436    -0.02142   0.91895   1.00
H2       0.20377    -0.05886   0.91865   1.00
C5       0.25341    0.00747    0.94491   1.00
H2       0.29933    0.05777    0.94797   1.00
H2       0.25487    -0.03150   0.95487   1.00
H2       0.20659    0.00936    0.94918   1.00
C5       0.24338    -0.06343   0.81457   1.00
H2       0.25066    -0.07501   0.79866   1.00
H2       0.19691    -0.05836   0.81472   1.00
C5       0.23396    -0.12100   0.82899   1.00
H2       0.19385    -0.17103   0.82301   1.00
C5       0.57640    0.17043    0.83162   1.00
H2       0.59648    0.22631    0.83183   1.00
H2       0.56482    0.15348    0.84766   1.00
C5       0.51072    0.13526    0.81864   1.00
H2       0.46583    0.12804    0.82756   1.00
H2       0.50141    0.08466    0.81332   1.00
O_3      0.81141    0.05792    0.82749   1.00
C4       0.84336    0.19451    0.83152   1.00
C3c      0.78172    0.19205    0.83628   1.00
H1       0.75619    0.16931    0.85040   1.00
C3d      0.87630    0.22525    0.81317   1.00
C3       0.75159    0.21781    0.82287   1.00
O2       0.69584    0.22117    0.82962   1.00
C3       0.84578    0.24976    0.79962   1.00
H1       0.87170    0.27071    0.78541   1.00
C2       0.78308    0.24701    0.80409   1.00
C5       0.84681    0.04838    0.81136   1.00
H2       0.87589    0.02327    0.81642   1.00
H2       0.88331    0.09800    0.80411   1.00
C5       0.79435    0.00287    0.79575   1.00
H2       0.76400    0.02704    0.79112   1.00
H2       0.75857    -0.04673   0.80310   1.00
C5       0.82884    -0.00818   0.77727   1.00
H2       0.85962    -0.03186   0.78181   1.00
H2       0.86277    0.04106    0.76951   1.00
H2       0.78962    -0.04277   0.76623   1.00
C5       0.99243    0.28185    0.81506   1.00
C5       0.63521    0.16154    0.82385   1.00
H2       0.99202    0.28118    0.83193   1.00
H2       0.99602    0.33038    0.80980   1.00
H2       0.63313    0.11578    0.83092   1.00
H2       0.63121    0.15349    0.80705   1.00
H2       0.51443    0.16715    0.80522   1.00
H2       1.11664    0.31055    0.83562   1.00
H2       1.12708    0.38076    0.81974   1.00
C2       0.93355    0.11022    0.87058   1.00
C3       0.94749    0.17774    0.87357   1.00
O2       1.00204    0.22236    0.88537   1.00
C3       0.88690    0.07077    0.85517   1.00
H1       0.87379    0.01837    0.85284   1.00
C3a      0.91636    0.20463    0.86093   1.00
H1       0.93054    0.25759    0.86265   1.00
C3b      0.85771    0.09835    0.84220   1.00
C4       0.87244    0.16580    0.84499   1.00
O_3      0.93432    0.22433    0.80708   1.00
C5       0.97922    0.22914    0.90468   1.00
H2       0.94286    0.24876    0.90349   1.00
C5       1.04224    0.28004    0.91665   1.00
H2       0.95349    0.17930    0.91280   1.00
H2       1.05637    0.33255    0.91176   1.00
H2       1.08517    0.27215    0.91208   1.00
C5       1.03142    0.27241    0.93980   1.00
H2       0.98519    0.27504    0.94391   1.00
H2       1.07610    0.31378    0.94792   1.00
H2       1.02579    0.22312    0.94530   1.00
C5       1.05484    0.27936    0.80768   1.00
H2       1.06171    0.29185    0.79120   1.00
H2       1.04436    0.22598    0.80922   1.00
C5       1.11943    0.32825    0.81967   1.00
H2       1.16492    0.33039    0.81254   1.00
C5       -0.05593   0.35613    0.41551   1.00
H2       -0.06980   0.39206    0.42258   1.00
H2       -0.00070   0.37751    0.41858   1.00
C5       -0.09792   0.28499    0.42543   1.00
H2       -0.07460   0.28274    0.44007   1.00
H2       -0.10037   0.24499    0.41507   1.00
O_3      0.00794    0.38502    0.31167   1.00
C4       -0.01759   0.47357    0.33521   1.00
C3c      -0.01217   0.45811    0.35551   1.00
H1       0.03632    0.46701    0.36127   1.00
C3d      -0.08100   0.46249    0.32809   1.00
C3       -0.06899   0.43016    0.36858   1.00
O2       -0.05798   0.42417    0.38882   1.00
C3       -0.13797   0.43346    0.34096   1.00
H1       -0.18607   0.42365    0.33462   1.00
C2       -0.13356   0.41683    0.36147   1.00
C5       -0.03489   0.35982    0.29450   1.00
H2       -0.00540   0.36981    0.28014   1.00
H2       -0.06795   0.38322    0.29316   1.00
C5       -0.07971   0.28321    0.29710   1.00
H2       -0.10775   0.27317    0.31173   1.00
H2       -0.04622   0.26033    0.29823   1.00
C5       -0.12979   0.25189    0.27936   1.00
H2       -0.10214   0.26214    0.26468   1.00
H2       -0.16482   0.27298    0.27865   1.00
H2       -0.16107   0.19569    0.28130   1.00
C5       -0.07297   0.54043    0.30471   1.00
C5       -0.06793   0.35842    0.39274   1.00
H2       -0.01839   0.57604    0.30828   1.00
H2       -0.10501   0.55449    0.31415   1.00
H2       -0.03068   0.35020    0.38387   1.00
H2       -0.12024   0.31691    0.38849   1.00
H2       -0.15087   0.27345    0.42907   1.00
H2       0.00574    0.64779    0.27597   1.00
H2       -0.06638   0.65252    0.28617   1.00
C2       0.15138    0.55139    0.29411   1.00
C3       0.14165    0.59656    0.30656   1.00
O2       0.17482    0.66540    0.30226   1.00
C3       0.10625    0.48049    0.29634   1.00
H1       0.11338    0.44451    0.28741   1.00
C3a      0.08675    0.57041    0.32039   1.00
H1       0.07768    0.60579    0.32897   1.00
C3b      0.05043    0.45476    0.30964   1.00
C4       0.04020    0.49977    0.32178   1.00
O_3      -0.09027   0.47200    0.30786   1.00
C5       0.23098    0.70102    0.31538   1.00
H2       0.21449    0.69373    0.33159   1.00
C5       0.26415    0.77668    0.30991   1.00
H2       0.26882    0.68367    0.31338   1.00
H2       0.23388    0.79768    0.31699   1.00
H2       0.25942    0.78003    0.29318   1.00
C5       0.33947    0.81819    0.31650   1.00
H2       0.34382    0.80994    0.33292   1.00
H2       0.36008    0.87364    0.31382   1.00
H2       0.37213    0.80344    0.30758   1.00
C5       -0.08515   0.54814    0.28241   1.00
H2       -0.14117   0.52174    0.27968   1.00
H2       -0.06477   0.52099    0.27322   1.00
C5       -0.05099   0.62347    0.27594   1.00
H2       -0.06678   0.62729    0.26026   1.00
C5       0.39943    1.06481    0.41237   1.00
H2       0.44642    1.07546    0.42066   1.00
H2       0.36199    1.01024    0.41524   1.00
C5       0.37253    1.11075    0.42079   1.00
H2       0.34276    1.08882    0.43496   1.00
H2       0.33933    1.11601    0.40934   1.00
O_3      0.38572    0.99946    0.30881   1.00
C4       0.49113    1.01754    0.33523   1.00
C3c      0.46590    1.01389    0.35492   1.00
H1       0.42287    0.96680    0.36020   1.00
C3d      0.54786    1.07908    0.32875   1.00
C3       0.49488    1.07079    0.36797   1.00
O2       0.47294    1.06105    0.38779   1.00
C3       0.57600    1.13620    0.34156   1.00
H1       0.61790    1.18298    0.33567   1.00
C2       0.55064    1.13362    0.36144   1.00
C5       0.41006    1.04218    0.29160   1.00
H2       0.39251    1.01287    0.27715   1.00
H2       0.46693    1.07206    0.29144   1.00
C5       0.38261    1.09114    0.29260   1.00
H2       0.39853    1.11907    0.30730   1.00
H2       0.32582    1.06079    0.29257   1.00
C5       0.40873    1.14126    0.27475   1.00
H2       0.39342    1.11370    0.26002   1.00
H2       0.46530    1.17323    0.27518   1.00
H2       0.38694    1.17564    0.27550   1.00
C5       0.61960    1.06495    0.30761   1.00
C5       0.41946    1.07573    0.38992   1.00
H2       0.59629    1.00991    0.31141   1.00
H2       0.66393    1.09476    0.31790   1.00
H2       0.37518    1.04048    0.38029   1.00
H2       0.43495    1.12904    0.38525   1.00
H2       0.41543    1.16249    0.42485   1.00
H2       0.64760    0.98066    0.28096   1.00
H2       0.72430    1.04964    0.29232   1.00
C2       0.40046    0.84873    0.29407   1.00
C3       0.45072    0.85479    0.30793   1.00
O2       0.48321    0.81759    0.30518   1.00
C3       0.37888    0.89752    0.29488   1.00
H1       0.33925    0.89331    0.28483   1.00
C3a      0.47924    0.90972    0.32176   1.00
H1       0.52039    0.91584    0.33148   1.00
C3b      0.40888    0.95329    0.30820   1.00
C4       0.45958    0.95985    0.32176   1.00
O_3      0.57136    1.08688    0.30900   1.00
C5       0.45600    0.76121    0.31846   1.00
H2       0.46223    0.77788    0.33464   1.00
C5       0.49528    0.72346    0.31473   1.00
H2       0.40075    0.72622    0.31540   1.00
H2       0.54498    0.75099    0.32285   1.00
H2       0.50737    0.72744    0.29824   1.00
C5       0.45544    0.64813    0.32140   1.00
H2       0.43914    0.64489    0.33746   1.00
H2       0.48774    0.62403    0.32005   1.00
H2       0.40968    0.61778    0.31161   1.00
C5       0.64488    1.07564    0.28579   1.00
H2       0.67828    1.13136    0.28314   1.00
H2       0.60005    1.05802    0.27555   1.00
C5       0.68306    1.03695    0.28105   1.00
H2       0.70680    1.05152    0.26578   1.00
C5       0.66451    0.60008    0.41251   1.00
H2       0.62818    0.55297    0.42075   1.00
H2       0.64721    0.63738    0.41539   1.00
C5       0.73729    0.62709    0.42099   1.00
H2       0.74490    0.65669    0.43519   1.00
H2       0.77583    0.66048    0.40958   1.00
O_3      0.61383    0.61466    0.30892   1.00
C4       0.52642    0.50887    0.33523   1.00
C3c      0.54775    0.53392    0.35495   1.00
H1       0.54349    0.57682    0.36025   1.00
C3d      0.53150    0.45232    0.32872   1.00
C3       0.57566    0.50495    0.36800   1.00
O2       0.58761    0.52670    0.38784   1.00
C3       0.56047    0.42418    0.34153   1.00
H1       0.56556    0.38242    0.33562   1.00
C2       0.58299    0.44937    0.36144   1.00
C5       0.63250    0.59059    0.29171   1.00
H2       0.62081    0.60822    0.27726   1.00
H2       0.60564    0.53372    0.29150   1.00
C5       0.70892    0.61823    0.29278   1.00
H2       0.72085    0.60222    0.30748   1.00
H2       0.73523    0.67502    0.29279   1.00
C5       0.73324    0.59241    0.27493   1.00
H2       0.72107    0.60781    0.26020   1.00
H2       0.70878    0.53585    0.27531   1.00
H2       0.78942    0.61434    0.27573   1.00
C5       0.44593    0.38062    0.30749   1.00
C5       0.65569    0.58028    0.39005   1.00
H2       0.41404    0.40375    0.31128   1.00
H2       0.43143    0.33622    0.31774   1.00
H2       0.66469    0.62462    0.38045   1.00
H2       0.69367    0.56499    0.38539   1.00
H2       0.74625    0.58425    0.42504   1.00
H2       0.33383    0.35258    0.28075   1.00
H2       0.32623    0.27586    0.29206   1.00
C2       0.44829    0.59956    0.29407   1.00
C3       0.40404    0.54910    0.30787   1.00
O2       0.33438    0.51646    0.30506   1.00
C3       0.51870    0.62132    0.29493   1.00
H1       0.55414    0.66110    0.28493   1.00
C3a      0.43044    0.52057    0.32170   1.00
H1       0.39539    0.47927    0.33138   1.00
C3b      0.54447    0.59131    0.30826   1.00
C4       0.50028    0.54042    0.32176   1.00
O_3      0.51604    0.42899    0.30895   1.00
C5       0.30493    0.54340    0.31834   1.00
H2       0.31524    0.53705    0.33452   1.00
C5       0.22793    0.50397    0.31454   1.00
H2       0.32508    0.59866    0.31533   1.00
H2       0.20582    0.45421    0.32261   1.00
H2       0.22003    0.49204    0.29803   1.00
C5       0.19219    0.54357    0.32121   1.00
H2       0.20505    0.55972    0.33728   1.00
H2       0.13582    0.51116    0.31980   1.00
H2       0.20759    0.58940    0.31145   1.00
C5       0.43162    0.35556    0.28564   1.00
H2       0.45412    0.32232    0.28298   1.00
H2       0.45885    0.40051    0.27544   1.00
C5       0.35480    0.31724    0.28083   1.00
H2       0.34586    0.29367    0.26554   1.00
C5       0.31344    0.39038    0.24846   1.00
H2       0.36207    0.43651    0.24419   1.00
H2       0.32316    0.34702    0.24736   1.00
C5       0.29439    0.39795    0.27047   1.00
H2       0.32294    0.38467    0.28158   1.00
H2       0.23870    0.36390    0.27294   1.00
O_3      0.06151    0.24140    0.17452   1.00
C4       0.19434    0.35140    0.16838   1.00
C3c      0.23144    0.35424    0.18578   1.00
H1       0.24001    0.31243    0.18919   1.00
C3d      0.18459    0.40686    0.16406   1.00
C3       0.25714    0.41021    0.19915   1.00
O2       0.29990    0.41323    0.21446   1.00
C3       0.20898    0.46207    0.17754   1.00
H1       0.19817    0.50230    0.17397   1.00
C2       0.24597    0.46542    0.19533   1.00
C5       0.01071    0.25523    0.16754   1.00
H2       -0.02488   0.21597    0.15661   1.00
H2       0.03385    0.30604    0.15996   1.00
C5       -0.02996   0.25530    0.18586   1.00
H2       0.00588    0.29318    0.19704   1.00
H2       -0.05335   0.20414    0.19319   1.00
C5       -0.08501   0.27241    0.17970   1.00
H2       -0.12071   0.23506    0.16844   1.00
H2       -0.06157   0.32444    0.17302   1.00
H2       -0.11518   0.27074    0.19322   1.00
C5       0.18424    0.42845    0.13027   1.00
C5       0.26182    0.38355    0.23230   1.00
H2       0.20627    0.39586    0.12612   1.00
H2       0.22668    0.48204    0.13213   1.00
H2       0.22389    0.32869    0.22962   1.00
H2       0.23301    0.40903    0.23748   1.00
H2       0.30825    0.45179    0.27379   1.00
H2       0.17487    0.38713    0.08840   1.00
H2       0.22241    0.47919    0.09159   1.00
C2       0.10836    0.17932    0.12838   1.00
C3       0.17635    0.23223    0.12565   1.00
O2       0.20987    0.23813    0.10763   1.00
C3       0.07123    0.18323    0.14509   1.00
H1       0.01969    0.14270    0.14790   1.00
C3a      0.20481    0.28802    0.13918   1.00
H1       0.25555    0.32995    0.13621   1.00
C3b      0.09894    0.23981    0.15813   1.00
C4       0.16616    0.29286    0.15521   1.00
O_3      0.14408    0.40431    0.14798   1.00
C5       0.25518    0.21285    0.10991   1.00
H2       0.29406    0.24139    0.12188   1.00
C5       0.29099    0.22221    0.08948   1.00
H2       0.22715    0.15769    0.11399   1.00
H2       0.33246    0.27632    0.08819   1.00
H2       0.25330    0.21384    0.07736   1.00
C5       0.31967    0.17368    0.08667   1.00
H2       0.35296    0.17888    0.09973   1.00
H2       0.35018    0.18586    0.07246   1.00
H2       0.27783    0.11943    0.08534   1.00
C5       0.13796    0.42591    0.11314   1.00
H2       0.12547    0.46709    0.11563   1.00
H2       0.08912    0.37653    0.11414   1.00
C5       0.17081    0.43303    0.09217   1.00
H2       0.13894    0.43812    0.08025   1.00
C5       0.40252    0.57917    0.16713   1.00
H2       0.41000    0.56445    0.18257   1.00
H2       0.42280    0.55560    0.15648   1.00
C5       0.32554    0.55083    0.16332   1.00
H2       0.30003    0.49618    0.15879   1.00
H2       0.31831    0.58053    0.15109   1.00
O_3      0.64132    0.90158    0.13195   1.00
C4       0.64948    0.84284    0.16871   1.00
C3c      0.59995    0.77344    0.16744   1.00
H1       0.60499    0.74164    0.15615   1.00
C3d      0.64248    0.88318    0.18373   1.00
C3       0.54293    0.74424    0.18044   1.00
O2       0.50117    0.67453    0.17996   1.00
C3       0.58509    0.85456    0.19643   1.00
H1       0.58066    0.88804    0.20724   1.00
C2       0.53413    0.78464    0.19521   1.00
C5       0.64900    0.96692    0.13461   1.00
H2       0.69052    1.00619    0.12496   1.00
H2       0.66048    0.98365    0.15075   1.00
C5       0.58219    0.96258    0.12857   1.00
H2       0.54040    0.92200    0.13781   1.00
H2       0.57156    0.94646    0.11238   1.00
C5       0.58528    1.03119    0.13170   1.00
H2       0.62721    1.07206    0.12263   1.00
H2       0.59353    1.04619    0.14798   1.00
H2       0.53655    1.02743    0.12679   1.00
C5       0.74345    0.96599    0.19683   1.00
C5       0.44657    0.65698    0.16636   1.00
H2       0.77227    0.94263    0.19029   1.00
H2       0.72748    0.94630    0.21257   1.00
H2       0.46651    0.67400    0.15069   1.00
H2       0.41556    0.68117    0.17048   1.00
H2       0.29917    0.55310    0.17739   1.00
H2       0.89015    1.04905    0.19478   1.00
H2       0.85777    1.03748    0.22056   1.00
C2       0.81987    0.93632    0.12817   1.00
C3       0.82387    0.90399    0.14600   1.00
O2       0.88627    0.91634    0.15318   1.00
C3       0.75760    0.93394    0.12367   1.00
H1       0.75232    0.95666    0.10988   1.00
C3a      0.76697    0.87195    0.15905   1.00
H1       0.77210    0.85083    0.17321   1.00
C3b      0.70184    0.90394    0.13700   1.00
C4       0.70624    0.87274    0.15487   1.00
O_3      0.68700    0.95279    0.18461   1.00
C5       0.89654    0.86148    0.14829   1.00
H2       0.85598    0.81273    0.15505   1.00
C5       0.96592    0.87848    0.15702   1.00
H2       0.89680    0.85492    0.13154   1.00
H2       0.95970    0.86674    0.17355   1.00
H2       1.00027    0.93462    0.15564   1.00
C5       0.99721    0.83995    0.14633   1.00
H2       0.96003    0.78432    0.14646   1.00
H2       1.04463    0.84915    0.15417   1.00
H2       1.01180    0.85767    0.13033   1.00
C5       0.79023    1.04297    0.19766   1.00
H2       0.76568    1.06506    0.20729   1.00
H2       0.79430    1.06371    0.18208   1.00
C5       0.86155    1.06285    0.20578   1.00
H2       0.89180    1.11888    0.20817   1.00
C5       0.39712    0.77956    0.15996   1.00
H2       0.42190    0.80841    0.17401   1.00
H2       0.41947    0.81684    0.14734   1.00
C5       0.41332    0.72125    0.15722   1.00
H2       0.46472    0.74077    0.15037   1.00
H2       0.37447    0.68088    0.14723   1.00
O_3      0.07480    0.72715    0.13634   1.00
C4       0.15731    0.80676    0.16869   1.00
C3c      0.22233    0.81561    0.16501   1.00
H1       0.25071    0.84374    0.15179   1.00
C3d      0.12160    0.77077    0.18616   1.00
C3       0.25132    0.78769    0.17805   1.00
O2       0.31826    0.80545    0.17486   1.00
C3       0.14976    0.74181    0.19896   1.00
H1       0.11945    0.71258    0.21178   1.00
C2       0.21514    0.74962    0.19534   1.00
C5       0.00844    0.67818    0.14263   1.00
H2       -0.03175   0.68232    0.13404   1.00
H2       0.00101    0.68350    0.15912   1.00
C5       -0.00030   0.60809    0.13878   1.00
H2       0.04102    0.60465    0.14691   1.00
H2       0.00658    0.60311    0.12225   1.00
C5       -0.07056   0.55159    0.14589   1.00
H2       -0.11206   0.55501    0.13795   1.00
H2       -0.07656   0.55510    0.16253   1.00
H2       -0.07657   0.50074    0.14256   1.00
C5       0.05647    0.81051    0.20048   1.00
C5       0.32133    0.75636    0.16234   1.00
H2       0.08205    0.85872    0.19161   1.00
H2       0.08308    0.81905    0.21535   1.00
H2       0.29817    0.75445    0.14724   1.00
H2       0.29327    0.70386    0.16895   1.00
H2       0.41433    0.69828    0.17214   1.00
H2       -0.00996   0.89096    0.19828   1.00
H2       0.01088    0.87984    0.22411   1.00
C2       0.06327    0.88377    0.12840   1.00
C3       0.10736    0.92588    0.14387   1.00
O2       0.10757    0.98468    0.14947   1.00
C3       0.05397    0.81753    0.12603   1.00
H1       0.02195    0.78468    0.11401   1.00
C3a      0.13937    0.90065    0.15679   1.00
H1       0.16987    0.93208    0.16927   1.00
C3b      0.08414    0.79182    0.13931   1.00
C4       0.12712    0.83336    0.15487   1.00
O_3      0.05540    0.75624    0.18965   1.00
C5       0.16443    1.04220    0.14098   1.00
H2       0.21325    1.04612    0.14613   1.00
C5       0.16162    1.10505    0.14815   1.00
H2       0.16258    1.03995    0.12409   1.00
H2       0.18175    1.11723    0.16393   1.00
H2       0.10689    1.09062    0.14897   1.00
C5       0.20140    1.16738    0.13420   1.00
H2       0.25449    1.17771    0.13228   1.00
H2       0.20301    1.21343    0.14080   1.00
H2       0.17650    1.15900    0.11900   1.00
C5       -0.01720   0.79174    0.20429   1.00
H2       -0.03916   0.75075    0.21597   1.00
H2       -0.04665   0.76971    0.19006   1.00
C5       -0.02307   0.85376    0.21096   1.00
H2       -0.07632   0.83697    0.21562   1.00
C5       1.04029    0.59066    0.57915   1.00
H2       1.08062    0.64476    0.58112   1.00
H2       0.99140    0.59086    0.57825   1.00
C5       1.05308    0.56248    0.55926   1.00
H2       1.03360    0.57778    0.54593   1.00
H2       1.02713    0.50583    0.55991   1.00
O_3      0.92493    0.38663    0.66541   1.00
C4       1.01799    0.52779    0.66493   1.00
C3c      1.01455    0.55001    0.64530   1.00
H1       0.96775    0.54681    0.64012   1.00
C3d      1.07976    0.53330    0.67149   1.00
C3       1.07070    0.57566    0.63200   1.00
O2       1.06628    0.60407    0.61402   1.00
C3       1.13534    0.55760    0.65815   1.00
H1       1.18087    0.55864    0.66360   1.00
C2       1.13251    0.57960    0.63817   1.00
C5       0.94950    0.34969    0.67634   1.00
H2       0.91346    0.31743    0.68846   1.00
H2       0.99972    0.38468    0.68354   1.00
C5       0.95822    0.30349    0.66141   1.00
H2       0.99273    0.33554    0.64899   1.00
H2       0.90767    0.26836    0.65446   1.00
C5       0.98720    0.26306    0.67195   1.00
H2       0.95323    0.23130    0.68447   1.00
H2       1.03871    0.29802    0.67829   1.00
H2       0.99180    0.22848    0.66090   1.00
C5       1.10183    0.55774    0.70514   1.00
C5       1.04227    0.55431    0.59850   1.00
H2       1.06209    0.57264    0.70664   1.00
H2       1.15169    0.60433    0.70180   1.00
H2       0.99013    0.51187    0.60229   1.00
H2       1.07567    0.53148    0.59629   1.00
H2       1.10882    0.58350    0.55658   1.00
H2       1.05722    0.56637    0.74552   1.00
H2       1.14779    0.62444    0.74163   1.00
C2       0.84674    0.44222    0.70525   1.00
C3       0.89071    0.51352    0.70449   1.00
O2       0.88985    0.55457    0.71982   1.00
C3       0.85886    0.40084    0.69175   1.00
H1       0.82511    0.34625    0.69158   1.00
C3a      0.94613    0.54144    0.69084   1.00
H1       0.98156    0.59572    0.69125   1.00
C3b      0.91527    0.42855    0.67865   1.00
C4       0.95954    0.49934    0.67813   1.00
O_3      1.08422    0.50740    0.69008   1.00
C5       0.85376    0.58725    0.71355   1.00
H2       0.87760    0.61953    0.69985   1.00
C5       0.85612    0.63244    0.73116   1.00
H2       0.79965    0.54924    0.71000   1.00
H2       0.90659    0.68018    0.73098   1.00
H2       0.85389    0.60540    0.74551   1.00
C5       0.79787    0.64902    0.73040   1.00
H2       0.79757    0.67103    0.71536   1.00
H2       0.80456    0.68646    0.74241   1.00
H2       0.74720    0.60250    0.73316   1.00
C5       1.10738    0.52749    0.72519   1.00
H2       1.15450    0.52361    0.72487   1.00
H2       1.06344    0.47450    0.72633   1.00
C5       1.10786    0.56999    0.74348   1.00
H2       1.11908    0.55062    0.75760   1.00
C5       0.56718    -0.04580   0.58098   1.00
H2       0.57668    -0.08862   0.58394   1.00
H2       0.61816    0.00106    0.58081   1.00
C5       0.53176    -0.05624   0.56016   1.00
H2       0.56972    -0.03898   0.54761   1.00
H2       0.50433    -0.02697   0.55953   1.00
O_3      0.47101    0.08214    0.66266   1.00
C4       0.50972    -0.01802   0.66494   1.00
C3c      0.53919    -0.01679   0.64609   1.00
H1       0.58580    0.02826    0.64152   1.00
C3d      0.44951    -0.07758   0.67073   1.00
C3       0.50877    -0.07287   0.63276   1.00
O2       0.54478    -0.07114   0.61573   1.00
C3       0.41840    -0.13301   0.65733   1.00
H1       0.37098    -0.17665   0.66212   1.00
C2       0.44711    -0.13234   0.63811   1.00
C5       0.40769    0.06162    0.67211   1.00
H2       0.41126    0.09889    0.68378   1.00
H2       0.38744    0.01088    0.67957   1.00
C5       0.35807    0.05655    0.65576   1.00
H2       0.35596    0.02076    0.64381   1.00
H2       0.37847    0.10762    0.64855   1.00
C5       0.28694    0.03206    0.66465   1.00
H2       0.28875    0.06732    0.67669   1.00
H2       0.26554    -0.01993   0.67123   1.00
H2       0.25178    0.03012    0.65256   1.00
C5       0.44200    -0.10003   0.70465   1.00
C5       0.52578    -0.04455   0.59917   1.00
H2       0.49699    -0.06304   0.70716   1.00
H2       0.43572    -0.15151   0.70194   1.00
H2       0.53827    0.00881    0.60247   1.00
H2       0.46993    -0.07486   0.59581   1.00
H2       0.49482    -0.11138   0.55727   1.00
H2       0.48677    -0.05719   0.74579   1.00
H2       0.44947    -0.14861   0.74228   1.00
C2       0.59553    0.15355    0.70514   1.00
C3       0.61835    0.10587    0.70582   1.00
O2       0.65481    0.10380    0.72231   1.00
C3       0.54666    0.14488    0.69030   1.00
H1       0.52946    0.18147    0.68903   1.00
C3a      0.59094    0.05031    0.69221   1.00
H1       0.60604    0.01215    0.69370   1.00
C3b      0.51790    0.08840    0.67722   1.00
C4       0.53986    0.04047    0.67813   1.00
O_3      0.41571    -0.07952   0.68842   1.00
C5       0.72487    0.13578    0.71755   1.00
H2       0.73431    0.11018    0.70449   1.00
C5       0.76141    0.13035    0.73638   1.00
H2       0.74539    0.19055    0.71369   1.00
H2       0.75485    0.07825    0.73685   1.00
H2       0.73446    0.13483    0.74992   1.00
C5       0.83770    0.18492    0.73697   1.00
H2       0.86263    0.18324    0.72263   1.00
H2       0.86368    0.17582    0.74993   1.00
H2       0.84502    0.23716    0.73911   1.00
C5       0.40256    -0.10266   0.72365   1.00
H2       0.35018    -0.14756   0.72253   1.00
H2       0.39712    -0.05641   0.72389   1.00
C5       0.43832    -0.10608   0.74312   1.00
H2       0.40483    -0.11509   0.75645   1.00
C5       0.38794    0.43349    0.58090   1.00
H2       0.33554    0.42381    0.58381   1.00
H2       0.38397    0.38257    0.58069   1.00
C5       0.41305    0.46914    0.56010   1.00
H2       0.39258    0.43130    0.54753   1.00
H2       0.46977    0.49672    0.55953   1.00
O_3      0.61124    0.52940    0.66278   1.00
C4       0.47225    0.49028    0.66494   1.00
C3c      0.44426    0.46096    0.64605   1.00
H1       0.44289    0.41446    0.64146   1.00
C3d      0.47265    0.55034    0.67076   1.00
C3       0.41860    0.49138    0.63272   1.00
O2       0.38455    0.45549    0.61566   1.00
C3       0.44833    0.58145    0.65736   1.00
H1       0.45191    0.62876    0.66219   1.00
C2       0.42053    0.55289    0.63811   1.00
C5       0.65381    0.59266    0.67228   1.00
H2       0.68746    0.58908    0.68397   1.00
H2       0.62312    0.61269    0.67973   1.00
C5       0.69844    0.64250    0.65599   1.00
H2       0.66482    0.64462    0.64402   1.00
H2       0.72930    0.62230    0.64879   1.00
C5       0.74484    0.71358    0.66495   1.00
H2       0.77821    0.71175    0.67702   1.00
H2       0.71406    0.73478    0.67152   1.00
H2       0.77812    0.74891    0.65291   1.00
C5       0.45730    0.55744    0.70468   1.00
C5       0.43034    0.47477    0.59914   1.00
H2       0.43942    0.50245    0.70715   1.00
H2       0.41204    0.56360    0.70195   1.00
H2       0.47127    0.46240    0.60246   1.00
H2       0.45576    0.53065    0.59582   1.00
H2       0.39474    0.50599    0.55723   1.00
H2       0.45508    0.51232    0.74580   1.00
H2       0.40079    0.54942    0.74227   1.00
C2       0.55801    0.40448    0.70514   1.00
C3       0.48746    0.38146    0.70577   1.00
O2       0.44881    0.34477    0.72221   1.00
C3       0.59826    0.45354    0.69036   1.00
H1       0.65209    0.47090    0.68913   1.00
C3a      0.45932    0.40887    0.69216   1.00
H1       0.40599    0.39361    0.69360   1.00
C3b      0.57054    0.48230    0.67728   1.00
C4       0.50060    0.46014    0.67813   1.00
O_3      0.50425    0.58400    0.68850   1.00
C5       0.41095    0.27475    0.71739   1.00
H2       0.37601    0.26534    0.70430   1.00
C5       0.36882    0.23794    0.73617   1.00
H2       0.44536    0.25441    0.71354   1.00
H2       0.32318    0.24434    0.73662   1.00
H2       0.40008    0.26481    0.74974   1.00
C5       0.34731    0.16169    0.73670   1.00
H2       0.32089    0.13687    0.72233   1.00
H2       0.31212    0.13551    0.74962   1.00
H2       0.39230    0.15451    0.73886   1.00
C5       0.49384    0.59674    0.72373   1.00
H2       0.50118    0.64907    0.72264   1.00
H2       0.54559    0.60233    0.72400   1.00
C5       0.45452    0.56072    0.74315   1.00
H2       0.47879    0.59410    0.75651   1.00
C5       0.31506    -0.30748   0.18066   1.00
H2       0.27214    -0.31613   0.17059   1.00
H2       0.29959    -0.30189   0.19621   1.00
C5       0.32579    -0.36975   0.17957   1.00
H2       0.28883    -0.41163   0.18956   1.00
H2       0.37857    -0.35476   0.18439   1.00
O_3      0.59437    0.02122    0.18587   1.00
C4       0.47242    -0.01740   0.16470   1.00
C3c      0.42569    -0.08342   0.17147   1.00
H1       0.40952    -0.09152   0.18714   1.00
C3d      0.49209    -0.00781   0.14415   1.00
C3       0.39991    -0.13994   0.15831   1.00
O2       0.34825    -0.20142   0.16536   1.00
C3       0.46751    -0.06416   0.13110   1.00
H1       0.48590    -0.05464   0.11564   1.00
C2       0.42080    -0.13138   0.13775   1.00
C5       0.65283    0.05766    0.17362   1.00
H2       0.69009    0.10785    0.18037   1.00
H2       0.63885    0.06698    0.15820   1.00
C5       0.68699    0.01478    0.17167   1.00
H2       0.64916    -0.03608   0.16546   1.00
H2       0.70129    0.00633    0.18714   1.00
C5       0.74996    0.04970    0.15793   1.00
H2       0.78774    0.10072    0.16397   1.00
H2       0.73540    0.05601    0.14230   1.00
H2       0.77509    0.01833    0.15705   1.00
C5       0.51114    0.09339    0.13098   1.00
C5       0.37593    -0.23999   0.17362   1.00
H2       0.48560    0.10295    0.14394   1.00
H2       0.47284    0.06701    0.11871   1.00
H2       0.40970    -0.21241   0.18673   1.00
H2       0.40716    -0.24959   0.16236   1.00
H2       0.31685    -0.39124   0.16387   1.00
H2       0.53506    0.23025    0.13631   1.00
H2       0.49592    0.19333    0.11203   1.00
C2       0.55848    0.15525    0.20449   1.00
C3       0.49542    0.13464    0.19486   1.00
O2       0.46944    0.17821    0.19396   1.00
C3       0.59018    0.11567    0.20142   1.00
H1       0.63759    0.12907    0.20899   1.00
C3a      0.46664    0.07676    0.18214   1.00
H1       0.42033    0.06393    0.17397   1.00
C3b      0.56252    0.05944    0.18825   1.00
C4       0.50037    0.03963    0.17845   1.00
O_3      0.54180    0.05524    0.13709   1.00
C5       0.41741    0.15946    0.20853   1.00
H2       0.37479    0.10631    0.20597   1.00
C5       0.39061    0.20922    0.20634   1.00
H2       0.43759    0.16302    0.22418   1.00
H2       0.35488    0.19279    0.19322   1.00
H2       0.43475    0.25991    0.20227   1.00
C5       0.35534    0.21448    0.22571   1.00
H2       0.31497    0.16274    0.23044   1.00
H2       0.33158    0.24655    0.22299   1.00
H2       0.39266    0.23910    0.23837   1.00
C5       0.56742    0.16158    0.12300   1.00
H2       0.58486    0.15291    0.10808   1.00
H2       0.61166    0.18075    0.13355   1.00
C5       0.54368    0.21429    0.12109   1.00
H2       0.58341    0.26076    0.11329   1.00
C5       1.08247    0.38280    0.09398   1.00
H2       1.08801    0.42415    0.08372   1.00
H2       1.02967    0.33991    0.09171   1.00
C5       1.13489    0.36095    0.08804   1.00
H2       1.11611    0.32507    0.07496   1.00
H2       1.14428    0.33566    0.10112   1.00
O_3      1.01085    0.40215    0.19564   1.00
C4       1.01745    0.49105    0.16474   1.00
C3c      1.01766    0.45963    0.14640   1.00
H1       0.97360    0.41167    0.14218   1.00
C3d      1.07500    0.55402    0.16981   1.00
C3       1.07466    0.48879    0.13339   1.00
O2       1.06799    0.45951    0.11462   1.00
C3       1.13233    0.58253    0.15708   1.00
H1       1.17619    0.62966    0.16195   1.00
C2       1.13368    0.55106    0.13859   1.00
C5       1.05221    0.43705    0.21247   1.00
H2       1.02287    0.42266    0.22695   1.00
H2       1.07648    0.49340    0.21054   1.00
C5       1.10760    0.41802    0.21396   1.00
H2       1.13570    0.43063    0.19928   1.00
H2       1.08282    0.36176    0.21608   1.00
C5       1.15654    0.45580    0.23152   1.00
H2       1.12874    0.44381    0.24621   1.00
H2       1.18308    0.51192    0.22907   1.00
H2       1.19576    0.44011    0.23265   1.00
C5       1.04992    0.62636    0.18688   1.00
C5       1.09052    0.41151    0.11547   1.00
H2       0.99484    0.59604    0.18298   1.00
H2       1.07617    0.66706    0.17523   1.00
H2       1.05854    0.36986    0.12635   1.00
H2       1.14474    0.43476    0.12058   1.00
H2       1.18428    0.40574    0.08312   1.00
H2       0.95602    0.65123    0.20992   1.00
H2       1.01958    0.72653    0.19653   1.00
C2       0.84884    0.40120    0.20598   1.00
C3       0.84934    0.44275    0.18994   1.00
O2       0.80567    0.46868    0.19021   1.00
C3       0.90329    0.38763    0.20738   1.00
H1       0.90353    0.35460    0.21917   1.00
C3a      0.90435    0.47091    0.17614   1.00
H1       0.90591    0.50572    0.16464   1.00
C3b      0.95898    0.41746    0.19402   1.00
C4       0.95993    0.45959    0.17827   1.00
O_3      1.07941    0.58444    0.18838   1.00
C5       0.75006    0.43085    0.17708   1.00
H2       0.76756    0.43246    0.16114   1.00
C5       0.70489    0.46333    0.17796   1.00
H2       0.72004    0.37657    0.18199   1.00
H2       0.72795    0.50951    0.16814   1.00
H2       0.70687    0.48147    0.19379   1.00
C5       0.63059    0.41395    0.17156   1.00
H2       0.62992    0.39222    0.15639   1.00
H2       0.60087    0.44092    0.17075   1.00
H2       0.60398    0.37167    0.18278   1.00
C5       1.05707    0.65962    0.20749   1.00
H2       1.11162    0.69886    0.20978   1.00
H2       1.04380    0.62008    0.21942   1.00
C5       1.01101    0.69136    0.20941   1.00
H2       1.02274    0.72114    0.22371   1.00
C5       0.59961    0.66366    0.08736   1.00
H2       0.55238    0.62734    0.07916   1.00
H2       0.63677    0.64619    0.08447   1.00
C5       0.62672    0.73638    0.07882   1.00
H2       0.65616    0.74377    0.06460   1.00
H2       0.66029    0.77499    0.09018   1.00
O_3      0.61502    0.61391    0.19097   1.00
C4       0.50887    0.52642    0.16477   1.00
C3c      0.53376    0.54750    0.14502   1.00
H1       0.57652    0.54305    0.13970   1.00
C3d      0.45248    0.53175    0.17131   1.00
C3       0.50479    0.57542    0.13198   1.00
O2       0.52634    0.58712    0.11211   1.00
C3       0.42436    0.56073    0.15850   1.00
H1       0.38273    0.56601    0.16443   1.00
C2       0.44938    0.58300    0.13856   1.00
C5       0.59122    0.63285    0.20818   1.00
H2       0.60892    0.62123    0.22262   1.00
H2       0.53436    0.60613    0.20844   1.00
C5       0.61904    0.70929    0.20705   1.00
H2       0.60295    0.72114    0.19235   1.00
H2       0.67582    0.73547    0.20699   1.00
C5       0.59351    0.73391    0.22490   1.00
H2       0.60899    0.72182    0.23963   1.00
H2       0.53696    0.70958    0.22457   1.00
H2       0.61557    0.79011    0.22405   1.00
C5       0.38084    0.44649    0.19263   1.00
C5       0.58004    0.65511    0.10983   1.00
H2       0.40380    0.41443    0.18885   1.00
H2       0.33636    0.43200    0.18242   1.00
H2       0.62442    0.66408    0.11940   1.00
H2       0.56493    0.69324    0.11448   1.00
H2       0.58393    0.74544    0.07479   1.00
H2       0.35276    0.33457    0.21946   1.00
H2       0.27603    0.32708    0.20820   1.00
C2       0.59957    0.44830    0.20593   1.00
C3       0.54892    0.40401    0.19218   1.00
O2       0.51615    0.33436    0.19506   1.00
C3       0.62151    0.51875    0.20501   1.00
H1       0.66144    0.55422    0.21497   1.00
C3a      0.52038    0.43040    0.17835   1.00
H1       0.47895    0.39532    0.16872   1.00
C3b      0.59150    0.54451    0.19168   1.00
C4       0.54042    0.50027    0.17824   1.00
O_3      0.42934    0.51654    0.19110   1.00
C5       0.54282    0.30465    0.18178   1.00
H2       0.53635    0.31483    0.16559   1.00
C5       0.50325    0.22770    0.18565   1.00
H2       0.59809    0.32469    0.18475   1.00
H2       0.45342    0.20562    0.17762   1.00
H2       0.49148    0.21998    0.20217   1.00
C5       0.54261    0.19171    0.17898   1.00
H2       0.55862    0.20438    0.16289   1.00
H2       0.51009    0.13537    0.18044   1.00
H2       0.58852    0.20708    0.18870   1.00
C5       0.35599    0.43246    0.21450   1.00
H2       0.32289    0.45512    0.21717   1.00
H2       0.40105    0.45969    0.22466   1.00
C5       0.31754    0.35568    0.21938   1.00
H2       0.29412    0.34695    0.23470   1.00
C5       0.35898    0.65538    0.65252   1.00
H2       0.34928    0.61128    0.66219   1.00
H2       0.36415    0.64091    0.63679   1.00
C5       0.29782    0.66777    0.65401   1.00
H2       0.25557    0.63231    0.64386   1.00
H2       0.31402    0.72124    0.64965   1.00
O_3      0.69064    0.93003    0.64850   1.00
C4       0.64925    0.80574    0.66863   1.00
C3c      0.58290    0.76074    0.66172   1.00
H1       0.57455    0.74593    0.64593   1.00
C3d      0.65915    0.82363    0.68932   1.00
C3       0.52641    0.73497    0.67489   1.00
O2       0.46443    0.68488    0.66763   1.00
C3       0.60285    0.79909    0.70240   1.00
H1       0.61267    0.81613    0.71798   1.00
C2       0.53533    0.75413    0.69561   1.00
C5       0.72808    0.98721    0.66115   1.00
H2       0.77860    1.02421    0.65453   1.00
H2       0.73685    0.97148    0.67638   1.00
C5       0.68667    1.02274    0.66364   1.00
H2       0.63547    0.98524    0.66972   1.00
H2       0.67877    1.03878    0.64837   1.00
C5       0.72273    1.08441    0.67784   1.00
H2       0.77408    1.12185    0.67193   1.00
H2       0.72851    1.06815    0.69329   1.00
H2       0.69243    1.11060    0.67912   1.00
C5       0.75943    0.83913    0.70219   1.00
C5       0.42714    0.71463    0.65984   1.00
H2       0.76825    0.81414    0.68894   1.00
H2       0.73236    0.79999    0.71421   1.00
H2       0.45529    0.74924    0.64693   1.00
H2       0.41845    0.74553    0.67144   1.00
H2       0.27632    0.65793    0.66972   1.00
H2       0.89511    0.86024    0.69644   1.00
H2       0.85755    0.81947    0.72049   1.00
C2       0.82200    0.89180    0.62889   1.00
C3       0.79997    0.82766    0.63798   1.00
O2       0.84226    0.80013    0.63841   1.00
C3       0.78378    0.92466    0.63246   1.00
H1       0.79827    0.97297    0.62530   1.00
C3a      0.74206    0.79893    0.65069   1.00
H1       0.72815    0.75167    0.65845   1.00
C3b      0.72752    0.89699    0.64562   1.00
C4       0.70630    0.83373    0.65489   1.00
O_3      0.72263    0.87171    0.69657   1.00
C5       0.82245    0.74921    0.62342   1.00
H2       0.76888    0.70722    0.62581   1.00
C5       0.87083    0.72058    0.62510   1.00
H2       0.82656    0.77089    0.60796   1.00
H2       0.85363    0.68370    0.63794   1.00
H2       0.92199    0.76359    0.62936   1.00
C5       0.87517    0.68640    0.60536   1.00
H2       0.82308    0.64729    0.60048   1.00
H2       0.90617    0.66127    0.60769   1.00
H2       0.90049    0.72464    0.59296   1.00
C5       0.82816    0.89364    0.71040   1.00
H2       0.82001    0.91024    0.72553   1.00
H2       0.84828    0.93885    0.70020   1.00
C5       0.87952    0.86807    0.71182   1.00
H2       0.92639    0.90640    0.71979   1.00
C5       0.42758    0.58833    0.67045   1.00
H2       0.40934    0.62557    0.66968   1.00
H2       0.44064    0.58231    0.65463   1.00
C5       0.49153    0.61697    0.68415   1.00
H2       0.53803    0.65355    0.67562   1.00
H2       0.49840    0.57458    0.68991   1.00
O_3      0.18339    0.24338    0.67374   1.00
C4       0.15666    0.35118    0.66847   1.00
C3c      0.21991    0.40907    0.66418   1.00
H1       0.24671    0.41083    0.65042   1.00
C3d      0.12212    0.35033    0.68634   1.00
C3       0.24998    0.46492    0.67759   1.00
O2       0.30770    0.52295    0.67122   1.00
C3       0.15252    0.40531    0.69991   1.00
H1       0.12523    0.40132    0.71377   1.00
C2       0.21680    0.46393    0.69592   1.00
C5       0.14503    0.19908    0.68967   1.00
H2       0.11505    0.14496    0.68460   1.00
H2       0.10892    0.21389    0.69628   1.00
C5       0.19480    0.20424    0.70598   1.00
H2       0.22610    0.25864    0.71065   1.00
H2       0.23018    0.18873    0.69927   1.00
C5       0.15703    0.15929    0.72428   1.00
H2       0.12530    0.10496    0.71970   1.00
H2       0.12347    0.17624    0.73143   1.00
H2       0.19429    0.16257    0.73585   1.00
C5       0.00630    0.29415    0.68320   1.00
C5       0.36642    0.52168    0.67787   1.00
H2       0.00872    0.29376    0.66636   1.00
H2       0.00390    0.34010    0.68808   1.00
H2       0.36759    0.47705    0.67115   1.00
H2       0.36815    0.51750    0.69474   1.00
H2       0.48738    0.64590    0.69730   1.00
H2       -0.11659   0.20150    0.66156   1.00
H2       -0.12640   0.26289    0.67683   1.00
C2       0.06624    0.17666    0.62943   1.00
C3       0.05502    0.23175    0.62584   1.00
O2       0.00264    0.22367    0.61333   1.00
C3       0.11035    0.18230    0.64545   1.00
H1       0.12137    0.14178    0.64826   1.00
C3a      0.08626    0.28975    0.63850   1.00
H1       0.07409    0.32978    0.63628   1.00
C3b      0.13958    0.23909    0.65841   1.00
C4       0.12756    0.29335    0.65502   1.00
O_3      0.06227    0.29257    0.69202   1.00
C5       0.02846    0.25282    0.59415   1.00
H2       0.06611    0.30845    0.59545   1.00
C5       -0.03229   0.24282    0.58136   1.00
H2       0.05370    0.22722    0.58659   1.00
H2       -0.04521   0.28249    0.58576   1.00
H2       -0.07686   0.19274    0.58568   1.00
C5       -0.01879   0.24549    0.55836   1.00
H2       0.02888    0.29346    0.55458   1.00
H2       -0.06169   0.24380    0.54963   1.00
H2       -0.01432   0.20077    0.55328   1.00
C5       -0.05824   0.23049    0.69015   1.00
H2       -0.06673   0.23658    0.70647   1.00
H2       -0.04947   0.18636    0.68909   1.00
C5       -0.12066   0.21690    0.67735   1.00
H2       -0.16776   0.17453    0.68413   1.00
C5       0.17037    0.57638    0.66839   1.00
H2       0.22625    0.59644    0.66818   1.00
H2       0.15340    0.56478    0.65235   1.00
C5       0.13520    0.51070    0.68138   1.00
H2       0.12796    0.46580    0.67246   1.00
H2       0.08460    0.50141    0.68670   1.00
O_3      0.05793    0.81145    0.67251   1.00
C4       0.19451    0.84336    0.66848   1.00
C3c      0.19203    0.78171    0.66373   1.00
H1       0.16927    0.75617    0.64960   1.00
C3d      0.22527    0.87631    0.68682   1.00
C3       0.21779    0.75158    0.67713   1.00
O2       0.22113    0.69581    0.67038   1.00
C3       0.24978    0.84579    0.70038   1.00
H1       0.27074    0.87172    0.71458   1.00
C2       0.24701    0.78308    0.69591   1.00
C5       0.04842    0.84686    0.68865   1.00
H2       0.02331    0.87595    0.68359   1.00
H2       0.09805    0.88337    0.69589   1.00
C5       0.00291    0.79442    0.70426   1.00
H2       0.02707    0.76406    0.70890   1.00
H2       -0.04669   0.75865    0.69692   1.00
C5       -0.00811   0.82893    0.72274   1.00
H2       -0.03179   0.85972    0.71820   1.00
H2       0.04113    0.86286    0.73050   1.00
H2       -0.04270   0.78973    0.73378   1.00
C5       0.28189    0.99244    0.68493   1.00
C5       0.16150    0.63519    0.67616   1.00
H2       0.28121    0.99201    0.66806   1.00
H2       0.33042    0.99602    0.69019   1.00
H2       0.11573    0.63313    0.66909   1.00
H2       0.15346    0.63122    0.69296   1.00
H2       0.16710    0.51442    0.69480   1.00
H2       0.31060    1.11664    0.66436   1.00
H2       0.38082    1.12708    0.68024   1.00
C2       0.11022    0.93355    0.62942   1.00
C3       0.17773    0.94748    0.62643   1.00
O2       0.22235    1.00201    0.61462   1.00
C3       0.07078    0.88692    0.64483   1.00
H1       0.01838    0.87382    0.64716   1.00
C3a      0.20462    0.91634    0.63907   1.00
H1       0.25758    0.93051    0.63735   1.00
C3b      0.09836    0.85773    0.65780   1.00
C4       0.16580    0.87244    0.65501   1.00
O_3      0.22437    0.93434    0.69291   1.00
C5       0.22911    0.97917    0.59531   1.00
H2       0.24872    0.94280    0.59650   1.00
C5       0.28001    1.04218    0.58334   1.00
H2       0.17927    0.95344    0.58719   1.00
H2       0.33252    1.05629    0.58822   1.00
H2       0.27214    1.08511    0.58791   1.00
C5       0.27235    1.03134    0.56018   1.00
H2       0.27497    0.98510    0.55608   1.00
H2       0.31373    1.07600    0.55206   1.00
H2       0.22307    1.02572    0.55469   1.00
C5       0.27943    1.05486    0.69231   1.00
H2       0.29192    1.06174    0.70879   1.00
H2       0.22604    1.04440    0.69077   1.00
C5       0.32831    1.11944    0.68031   1.00
H2       0.33047    1.16494    0.68744   1.00
