data_IRMOF10_interpen_symm_ligand3cp_label_m_2.

_audit_creation_method             'generated by an auxiliary program of Tobunporous'

_symmetry_space_group_name_H-M     'P 1'
_symmetry_Int_Tables_number        1
_symmetry_cell_setting             triclinic

_cell_length_a                    22.6523
_cell_length_b                    22.6523
_cell_length_c                    65.9502
_cell_angle_alpha                 90.0000
_cell_angle_beta                  90.0000
_cell_angle_gamma                 120.0000

loop_
_atom_site_label
_atom_site_fract_x
_atom_site_fract_y
_atom_site_fract_z
_atom_site_occupancy
O1       0.00000    0.00000    0.57470   1.00
Zn1      0.00000    0.00000    0.54560   1.00
Zn1      0.94843    0.04287    0.58357   1.00
Zn1      0.09443    0.05157    0.58357   1.00
Zn1      0.95713    0.90557    0.58357   1.00
O2       0.93860    0.02610    0.53560   1.00
O2       0.08750    0.06140    0.53560   1.00
O2       0.97390    0.91250    0.53560   1.00
O2       0.91300    0.07160    0.56150   1.00
O2       0.00463    0.12027    0.60077   1.00
O2       0.87413    0.98077    0.60037   1.00
O2       0.15860    0.08700    0.56150   1.00
O2       0.10663    0.12587    0.60037   1.00
O2       0.11563    0.99537    0.60077   1.00
O2       0.92840    0.84140    0.56150   1.00
O2       0.87973    0.88437    0.60077   1.00
O2       0.01923    0.89337    0.60037   1.00
C1       0.91390    0.06020    0.54330   1.00
C1       0.14630    0.08610    0.54330   1.00
C1       0.93980    0.85370    0.54330   1.00
C1       0.06663    0.14397    0.60637   1.00
C1       0.85603    0.92267    0.60637   1.00
C1       0.07733    0.93337    0.60637   1.00
O1       0.00000    0.00000    0.92530   1.00
Zn1      0.00000    0.00000    0.95440   1.00
Zn1      0.04287    0.94843    0.91643   1.00
Zn1      0.05157    0.09443    0.91643   1.00
Zn1      0.90557    0.95713    0.91643   1.00
O2       0.02610    0.93860    0.96440   1.00
O2       0.06140    0.08750    0.96440   1.00
O2       0.91250    0.97390    0.96440   1.00
O2       0.07160    0.91300    0.93850   1.00
O2       0.12027    0.00463    0.89923   1.00
O2       0.98077    0.87413    0.89963   1.00
O2       0.08700    0.15860    0.93850   1.00
O2       0.12587    0.10663    0.89963   1.00
O2       0.99537    0.11563    0.89923   1.00
O2       0.84140    0.92840    0.93850   1.00
O2       0.88437    0.87973    0.89923   1.00
O2       0.89337    0.01923    0.89963   1.00
C1       0.06020    0.91390    0.95670   1.00
C1       0.08610    0.14630    0.95670   1.00
C1       0.85370    0.93980    0.95670   1.00
C1       0.14397    0.06663    0.89363   1.00
C1       0.92267    0.85603    0.89363   1.00
C1       0.93337    0.07733    0.89363   1.00
O1       0.00000    0.00000    0.42530   1.00
Zn1      0.00000    0.00000    0.45440   1.00
Zn1      0.05157    0.95713    0.41643   1.00
Zn1      0.90557    0.94843    0.41643   1.00
Zn1      0.04287    0.09443    0.41643   1.00
O2       0.06140    0.97390    0.46440   1.00
O2       0.91250    0.93860    0.46440   1.00
O2       0.02610    0.08750    0.46440   1.00
O2       0.08700    0.92840    0.43850   1.00
O2       0.99537    0.87973    0.39923   1.00
O2       0.12587    0.01923    0.39963   1.00
O2       0.84140    0.91300    0.43850   1.00
O2       0.89337    0.87413    0.39963   1.00
O2       0.88437    0.00463    0.39923   1.00
O2       0.07160    0.15860    0.43850   1.00
O2       0.12027    0.11563    0.39923   1.00
O2       0.98077    0.10663    0.39963   1.00
C1       0.08610    0.93980    0.45670   1.00
C1       0.85370    0.91390    0.45670   1.00
C1       0.06020    0.14630    0.45670   1.00
C1       0.93337    0.85603    0.39363   1.00
C1       0.14397    0.07733    0.39363   1.00
C1       0.92267    0.06663    0.39363   1.00
O1       0.00000    0.00000    0.07470   1.00
Zn1      0.00000    0.00000    0.04560   1.00
Zn1      0.95713    0.05157    0.08357   1.00
Zn1      0.94843    0.90557    0.08357   1.00
Zn1      0.09443    0.04287    0.08357   1.00
O2       0.97390    0.06140    0.03560   1.00
O2       0.93860    0.91250    0.03560   1.00
O2       0.08750    0.02610    0.03560   1.00
O2       0.92840    0.08700    0.06150   1.00
O2       0.87973    0.99537    0.10077   1.00
O2       0.01923    0.12587    0.10037   1.00
O2       0.91300    0.84140    0.06150   1.00
O2       0.87413    0.89337    0.10037   1.00
O2       0.00463    0.88437    0.10077   1.00
O2       0.15860    0.07160    0.06150   1.00
O2       0.11563    0.12027    0.10077   1.00
O2       0.10663    0.98077    0.10037   1.00
C1       0.93980    0.08610    0.04330   1.00
C1       0.91390    0.85370    0.04330   1.00
C1       0.14630    0.06020    0.04330   1.00
C1       0.85603    0.93337    0.10637   1.00
C1       0.07733    0.14397    0.10637   1.00
C1       0.06663    0.92267    0.10637   1.00
O1       0.66667    0.33333    0.90803   1.00
Zn1      0.66667    0.33333    0.87893   1.00
Zn1      0.61510    0.37620    0.91690   1.00
Zn1      0.76110    0.38490    0.91690   1.00
Zn1      0.62380    0.23890    0.91690   1.00
O2       0.60527    0.35943    0.86893   1.00
O2       0.75417    0.39473    0.86893   1.00
O2       0.64057    0.24583    0.86893   1.00
O2       0.57967    0.40493    0.89483   1.00
O2       0.67130    0.45360    0.93410   1.00
O2       0.54080    0.31410    0.93370   1.00
O2       0.82527    0.42033    0.89483   1.00
O2       0.77330    0.45920    0.93370   1.00
O2       0.78230    0.32870    0.93410   1.00
O2       0.59507    0.17473    0.89483   1.00
O2       0.54640    0.21770    0.93410   1.00
O2       0.68590    0.22670    0.93370   1.00
C1       0.58057    0.39353    0.87663   1.00
C1       0.81297    0.41943    0.87663   1.00
C1       0.60647    0.18703    0.87663   1.00
C1       0.73330    0.47730    0.93970   1.00
C1       0.52270    0.25600    0.93970   1.00
C1       0.74400    0.26670    0.93970   1.00
O1       0.66667    0.33333    0.25863   1.00
Zn1      0.66667    0.33333    0.28773   1.00
Zn1      0.70953    0.28177    0.24977   1.00
Zn1      0.71823    0.42777    0.24977   1.00
Zn1      0.57223    0.29047    0.24977   1.00
O2       0.69277    0.27193    0.29773   1.00
O2       0.72807    0.42083    0.29773   1.00
O2       0.57917    0.30723    0.29773   1.00
O2       0.73827    0.24633    0.27183   1.00
O2       0.78693    0.33797    0.23257   1.00
O2       0.64743    0.20747    0.23297   1.00
O2       0.75367    0.49193    0.27183   1.00
O2       0.79253    0.43997    0.23297   1.00
O2       0.66203    0.44897    0.23257   1.00
O2       0.50807    0.26173    0.27183   1.00
O2       0.55103    0.21307    0.23257   1.00
O2       0.56003    0.35257    0.23297   1.00
C1       0.72687    0.24723    0.29003   1.00
C1       0.75277    0.47963    0.29003   1.00
C1       0.52037    0.27313    0.29003   1.00
C1       0.81063    0.39997    0.22697   1.00
C1       0.58933    0.18937    0.22697   1.00
C1       0.60003    0.41067    0.22697   1.00
O1       0.66667    0.33333    0.75863   1.00
Zn1      0.66667    0.33333    0.78773   1.00
Zn1      0.71823    0.29047    0.74977   1.00
Zn1      0.57223    0.28177    0.74977   1.00
Zn1      0.70953    0.42777    0.74977   1.00
O2       0.72807    0.30723    0.79773   1.00
O2       0.57917    0.27193    0.79773   1.00
O2       0.69277    0.42083    0.79773   1.00
O2       0.75367    0.26173    0.77183   1.00
O2       0.66203    0.21307    0.73257   1.00
O2       0.79253    0.35257    0.73297   1.00
O2       0.50807    0.24633    0.77183   1.00
O2       0.56003    0.20747    0.73297   1.00
O2       0.55103    0.33797    0.73257   1.00
O2       0.73827    0.49193    0.77183   1.00
O2       0.78693    0.44897    0.73257   1.00
O2       0.64743    0.43997    0.73297   1.00
C1       0.75277    0.27313    0.79003   1.00
C1       0.52037    0.24723    0.79003   1.00
C1       0.72687    0.47963    0.79003   1.00
C1       0.60003    0.18937    0.72697   1.00
C1       0.81063    0.41067    0.72697   1.00
C1       0.58933    0.39997    0.72697   1.00
O1       0.66667    0.33333    0.40803   1.00
Zn1      0.66667    0.33333    0.37893   1.00
Zn1      0.62380    0.38490    0.41690   1.00
Zn1      0.61510    0.23890    0.41690   1.00
Zn1      0.76110    0.37620    0.41690   1.00
O2       0.64057    0.39473    0.36893   1.00
O2       0.60527    0.24583    0.36893   1.00
O2       0.75417    0.35943    0.36893   1.00
O2       0.59507    0.42033    0.39483   1.00
O2       0.54640    0.32870    0.43410   1.00
O2       0.68590    0.45920    0.43370   1.00
O2       0.57967    0.17473    0.39483   1.00
O2       0.54080    0.22670    0.43370   1.00
O2       0.67130    0.21770    0.43410   1.00
O2       0.82527    0.40493    0.39483   1.00
O2       0.78230    0.45360    0.43410   1.00
O2       0.77330    0.31410    0.43370   1.00
C1       0.60647    0.41943    0.37663   1.00
C1       0.58057    0.18703    0.37663   1.00
C1       0.81297    0.39353    0.37663   1.00
C1       0.52270    0.26670    0.43970   1.00
C1       0.74400    0.47730    0.43970   1.00
C1       0.73330    0.25600    0.43970   1.00
O1       0.33333    0.66667    0.24137   1.00
Zn1      0.33333    0.66667    0.21227   1.00
Zn1      0.28177    0.70953    0.25023   1.00
Zn1      0.42777    0.71823    0.25023   1.00
Zn1      0.29047    0.57223    0.25023   1.00
O2       0.27193    0.69277    0.20227   1.00
O2       0.42083    0.72807    0.20227   1.00
O2       0.30723    0.57917    0.20227   1.00
O2       0.24633    0.73827    0.22817   1.00
O2       0.33797    0.78693    0.26743   1.00
O2       0.20747    0.64743    0.26703   1.00
O2       0.49193    0.75367    0.22817   1.00
O2       0.43997    0.79253    0.26703   1.00
O2       0.44897    0.66203    0.26743   1.00
O2       0.26173    0.50807    0.22817   1.00
O2       0.21307    0.55103    0.26743   1.00
O2       0.35257    0.56003    0.26703   1.00
C1       0.24723    0.72687    0.20997   1.00
C1       0.47963    0.75277    0.20997   1.00
C1       0.27313    0.52037    0.20997   1.00
C1       0.39997    0.81063    0.27303   1.00
C1       0.18937    0.58933    0.27303   1.00
C1       0.41067    0.60003    0.27303   1.00
O1       0.33333    0.66667    0.59197   1.00
Zn1      0.33333    0.66667    0.62107   1.00
Zn1      0.37620    0.61510    0.58310   1.00
Zn1      0.38490    0.76110    0.58310   1.00
Zn1      0.23890    0.62380    0.58310   1.00
O2       0.35943    0.60527    0.63107   1.00
O2       0.39473    0.75417    0.63107   1.00
O2       0.24583    0.64057    0.63107   1.00
O2       0.40493    0.57967    0.60517   1.00
O2       0.45360    0.67130    0.56590   1.00
O2       0.31410    0.54080    0.56630   1.00
O2       0.42033    0.82527    0.60517   1.00
O2       0.45920    0.77330    0.56630   1.00
O2       0.32870    0.78230    0.56590   1.00
O2       0.17473    0.59507    0.60517   1.00
O2       0.21770    0.54640    0.56590   1.00
O2       0.22670    0.68590    0.56630   1.00
C1       0.39353    0.58057    0.62337   1.00
C1       0.41943    0.81297    0.62337   1.00
C1       0.18703    0.60647    0.62337   1.00
C1       0.47730    0.73330    0.56030   1.00
C1       0.25600    0.52270    0.56030   1.00
C1       0.26670    0.74400    0.56030   1.00
O1       0.33333    0.66667    0.09197   1.00
Zn1      0.33333    0.66667    0.12107   1.00
Zn1      0.38490    0.62380    0.08310   1.00
Zn1      0.23890    0.61510    0.08310   1.00
Zn1      0.37620    0.76110    0.08310   1.00
O2       0.39473    0.64057    0.13107   1.00
O2       0.24583    0.60527    0.13107   1.00
O2       0.35943    0.75417    0.13107   1.00
O2       0.42033    0.59507    0.10517   1.00
O2       0.32870    0.54640    0.06590   1.00
O2       0.45920    0.68590    0.06630   1.00
O2       0.17473    0.57967    0.10517   1.00
O2       0.22670    0.54080    0.06630   1.00
O2       0.21770    0.67130    0.06590   1.00
O2       0.40493    0.82527    0.10517   1.00
O2       0.45360    0.78230    0.06590   1.00
O2       0.31410    0.77330    0.06630   1.00
C1       0.41943    0.60647    0.12337   1.00
C1       0.18703    0.58057    0.12337   1.00
C1       0.39353    0.81297    0.12337   1.00
C1       0.26670    0.52270    0.06030   1.00
C1       0.47730    0.74400    0.06030   1.00
C1       0.25600    0.73330    0.06030   1.00
O1       0.33333    0.66667    0.74137   1.00
Zn1      0.33333    0.66667    0.71227   1.00
Zn1      0.29047    0.71823    0.75023   1.00
Zn1      0.28177    0.57223    0.75023   1.00
Zn1      0.42777    0.70953    0.75023   1.00
O2       0.30723    0.72807    0.70227   1.00
O2       0.27193    0.57917    0.70227   1.00
O2       0.42083    0.69277    0.70227   1.00
O2       0.26173    0.75367    0.72817   1.00
O2       0.21307    0.66203    0.76743   1.00
O2       0.35257    0.79253    0.76703   1.00
O2       0.24633    0.50807    0.72817   1.00
O2       0.20747    0.56003    0.76703   1.00
O2       0.33797    0.55103    0.76743   1.00
O2       0.49193    0.73827    0.72817   1.00
O2       0.44897    0.78693    0.76743   1.00
O2       0.43997    0.64743    0.76703   1.00
C1       0.27313    0.75277    0.70997   1.00
C1       0.24723    0.52037    0.70997   1.00
C1       0.47963    0.72687    0.70997   1.00
C1       0.18937    0.60003    0.77303   1.00
C1       0.41067    0.81063    0.77303   1.00
C1       0.39997    0.58933    0.77303   1.00
C4       0.87258    0.69971    0.49685   1.00
C4       0.85072    0.64780    0.48168   1.00
C3       0.93525    0.76233    0.49591   1.00
C3       0.89195    0.65062    0.46506   1.00
C3       0.83029    0.68851    0.51414   1.00
C3       0.78394    0.58962    0.48300   1.00
C2       0.91468    0.80068    0.52863   1.00
C2       0.80337    0.53999    0.45189   1.00
C3       0.95594    0.81128    0.51141   1.00
C3       0.86873    0.59853    0.45047   1.00
C3       0.85150    0.73907    0.52943   1.00
C3       0.76262    0.53635    0.46862   1.00
H1       0.96759    0.77431    0.48391   1.00
H1       0.94022    0.69038    0.46314   1.00
C5       0.76697    0.62700    0.51600   1.00
C5       0.73899    0.58455    0.49874   1.00
H1       1.00204    0.85540    0.50998   1.00
H1       0.90056    0.60359    0.43868   1.00
H1       0.81978    0.73114    0.54146   1.00
H1       0.71638    0.49310    0.47051   1.00
O3       0.73189    0.61146    0.53410   1.00
O3       0.67044    0.53616    0.49806   1.00
Si1      0.74275    0.56468    0.55087   1.00
Si1      0.61875    0.55322    0.48545   1.00
C6       0.69606    0.57470    0.57069   1.00
C6       0.70108    0.48022    0.54172   1.00
C6       0.82893    0.59739    0.55776   1.00
C6       0.65362    0.63196    0.47249   1.00
C6       0.58103    0.48609    0.46789   1.00
C6       0.55504    0.54485    0.50247   1.00
C6       0.71237    0.64954    0.57487   1.00
H2       0.64416    0.54821    0.56469   1.00
C6       0.69141    0.54278    0.59218   1.00
H2       0.66251    0.47990    0.53172   1.00
C6       0.74258    0.45673    0.52831   1.00
C6       0.66098    0.42060    0.55710   1.00
H2       0.84593    0.65113    0.56055   1.00
C6       0.84345    0.56965    0.57780   1.00
C6       0.88012    0.59578    0.54197   1.00
C6       0.69540    0.69892    0.48504   1.00
C6       0.69415    0.64220    0.45230   1.00
H2       0.60799    0.63271    0.46754   1.00
H2       0.62233    0.49641    0.45739   1.00
C6       0.55668    0.41293    0.47644   1.00
C6       0.52109    0.48079    0.45474   1.00
H2       0.51945    0.49002    0.50302   1.00
C6       0.57775    0.56581    0.52489   1.00
C6       0.51153    0.57852    0.49660   1.00
H2       0.70628    0.67324    0.56121   1.00
H2       0.76457    0.68132    0.58035   1.00
H2       0.67782    0.65069    0.58624   1.00
H2       0.64179    0.52730    0.59904   1.00
H2       0.69735    0.49806    0.59168   1.00
H2       0.72978    0.57908    0.60266   1.00
H2       0.70834    0.40970    0.52019   1.00
H2       0.77263    0.49427    0.51679   1.00
H2       0.77661    0.44669    0.53754   1.00
H2       0.62270    0.42693    0.56533   1.00
H2       0.63326    0.37147    0.54931   1.00
H2       0.69547    0.41708    0.56798   1.00
H2       0.81785    0.51402    0.57771   1.00
H2       0.89799    0.58910    0.58010   1.00
H2       0.82705    0.58615    0.59105   1.00
H2       0.88055    0.54781    0.54248   1.00
H2       0.86940    0.60293    0.52644   1.00
H2       0.93205    0.63657    0.54527   1.00
H2       0.74810    0.71135    0.48711   1.00
H2       0.69672    0.74211    0.47720   1.00
H2       0.67327    0.69574    0.49994   1.00
H2       0.70390    0.68918    0.44469   1.00
H2       0.74349    0.64627    0.45490   1.00
H2       0.66587    0.60100    0.44151   1.00
H2       0.54495    0.37669    0.46401   1.00
H2       0.59635    0.41177    0.48558   1.00
H2       0.51101    0.39438    0.48578   1.00
H2       0.53434    0.52937    0.44762   1.00
H2       0.50869    0.44378    0.44249   1.00
H2       0.47500    0.46397    0.46378   1.00
H2       0.61580    0.61970    0.52630   1.00
H2       0.53459    0.55533    0.53465   1.00
H2       0.59988    0.53648    0.53082   1.00
H2       0.46755    0.56109    0.50668   1.00
H2       0.54141    0.63406    0.49771   1.00
H2       0.49153    0.56520    0.48122   1.00
C4       0.30777    0.17491    0.49901   1.00
C4       0.35828    0.20297    0.48339   1.00
C3       0.31085    0.13650    0.51558   1.00
C3       0.41347    0.19024    0.48179   1.00
C3       0.25020    0.18458    0.49798   1.00
C3       0.35404    0.24642    0.46849   1.00
C2       0.20187    0.11698    0.52943   1.00
C2       0.45746    0.26040    0.45109   1.00
C3       0.25920    0.10799    0.53032   1.00
C3       0.46208    0.21866    0.46620   1.00
C3       0.19928    0.15648    0.51320   1.00
C3       0.40186    0.27217    0.45241   1.00
H1       0.35083    0.12831    0.51748   1.00
H1       0.41976    0.15962    0.49182   1.00
C5       0.24402    0.22250    0.48181   1.00
C5       0.30184    0.26349    0.46957   1.00
H1       0.26394    0.08028    0.54188   1.00
H1       0.50123    0.20816    0.46590   1.00
H1       0.15924    0.16544    0.51258   1.00
H1       0.39561    0.29959    0.44114   1.00
O3       0.18355    0.22214    0.47899   1.00
O3       0.30450    0.31547    0.45789   1.00
Si1      0.12619    0.16706    0.46349   1.00
Si1      0.34806    0.39369    0.46619   1.00
C6       0.06056    0.18456    0.46957   1.00
C6       0.15630    0.19332    0.43859   1.00
C6       0.10210    0.08173    0.46919   1.00
C6       0.39233    0.40846    0.48941   1.00
C6       0.40663    0.43602    0.44655   1.00
C6       0.29181    0.42613    0.46729   1.00
C6       0.04745    0.18825    0.49277   1.00
H2       0.08118    0.23656    0.46394   1.00
C6       -0.01214   0.14249    0.45979   1.00
H2       0.19057    0.24798    0.44058   1.00
C6       0.20027    0.16565    0.42854   1.00
C6       0.10431    0.18663    0.42185   1.00
H2       0.09332    0.07948    0.48554   1.00
C6       0.03402    0.02447    0.45964   1.00
C6       0.15426    0.05615    0.46560   1.00
C6       0.35051    0.37025    0.50871   1.00
C6       0.45966    0.40494    0.49020   1.00
H2       0.40976    0.46223    0.49219   1.00
H2       0.44138    0.41585    0.44742   1.00
C6       0.37712    0.42003    0.42448   1.00
C6       0.45180    0.51533    0.44812   1.00
H2       0.28968    0.44101    0.45168   1.00
C6       0.21640    0.37424    0.47297   1.00
C6       0.31286    0.49110    0.48054   1.00
H2       0.09388    0.22522    0.50060   1.00
H2       0.02866    0.13871    0.50008   1.00
H2       0.00985    0.20437    0.49522   1.00
H2       -0.03457   0.17506    0.45770   1.00
H2       -0.01128   0.12141    0.44505   1.00
H2       -0.04740   0.10012    0.46939   1.00
H2       0.22739    0.19621    0.41527   1.00
H2       0.23909    0.16809    0.43879   1.00
H2       0.16847    0.11304    0.42347   1.00
H2       0.07740    0.21345    0.42614   1.00
H2       0.13017    0.20941    0.40753   1.00
H2       0.06708    0.13320    0.41886   1.00
H2       0.03385    0.03018    0.44320   1.00
H2       0.02567    -0.02659   0.46282   1.00
H2       -0.00998   0.02494    0.46602   1.00
H2       0.15176    0.03773    0.45014   1.00
H2       0.20678    0.09487    0.46835   1.00
H2       0.14295    0.01368    0.47580   1.00
H2       0.34283    0.31887    0.50973   1.00
H2       0.37756    0.39727    0.52245   1.00
H2       0.30077    0.36668    0.50909   1.00
H2       0.48583    0.42453    0.50468   1.00
H2       0.45014    0.35305    0.48873   1.00
H2       0.49573    0.43603    0.47843   1.00
H2       0.41849    0.43913    0.41337   1.00
H2       0.34569    0.36515    0.42195   1.00
H2       0.34622    0.44349    0.42121   1.00
H2       0.47629    0.53122    0.46293   1.00
H2       0.49256    0.53452    0.43679   1.00
H2       0.42191    0.54032    0.44542   1.00
H2       0.21189    0.35336    0.48816   1.00
H2       0.18417    0.39740    0.47215   1.00
H2       0.19561    0.33200    0.46234   1.00
H2       0.27944    0.51207    0.47753   1.00
H2       0.30953    0.47943    0.49672   1.00
H2       0.36469    0.53148    0.47723   1.00
C4       0.82618    0.13370    0.49891   1.00
C4       0.79794    0.15586    0.48327   1.00
C3       0.87526    0.17849    0.51313   1.00
C3       0.82044    0.22550    0.47914   1.00
C3       0.80533    0.06302    0.50036   1.00
C3       0.74405    0.10613    0.47100   1.00
C2       0.88334    0.08533    0.52945   1.00
C2       0.73928    0.19662    0.45107   1.00
C3       0.90336    0.15509    0.52791   1.00
C3       0.79151    0.24534    0.46361   1.00
C3       0.83334    0.04025    0.51562   1.00
C3       0.71760    0.12727    0.45487   1.00
H1       0.89184    0.22941    0.51321   1.00
H1       0.85879    0.26387    0.48720   1.00
C5       0.75641    0.01552    0.48661   1.00
C5       0.71721    0.03563    0.47474   1.00
H1       0.93903    0.18993    0.53770   1.00
H1       0.80941    0.29642    0.46143   1.00
H1       0.81650    -0.01084   0.51683   1.00
H1       0.68211    0.09120    0.44542   1.00
O3       0.74493    -0.05022   0.48585   1.00
O3       0.65690    -0.01278   0.46588   1.00
Si1      0.78656    -0.07001   0.46956   1.00
Si1      0.58489    -0.03149   0.47677   1.00
C6       0.75920    -0.15301   0.47871   1.00
C6       0.75243    -0.07233   0.44534   1.00
C6       0.87595    -0.01780   0.47146   1.00
C6       0.58749    0.01345    0.49899   1.00
C6       0.54101    -0.01512   0.45764   1.00
C6       0.54096    -0.11990   0.48148   1.00
C6       0.76358    -0.15974   0.50226   1.00
H2       0.70477    -0.17945   0.47522   1.00
C6       0.78688    -0.19813   0.46927   1.00
H2       0.70104    -0.08304   0.44905   1.00
C6       0.78504    -0.00535   0.43245   1.00
C6       0.74282    -0.12972   0.43021   1.00
H2       0.88430    -0.01777   0.48779   1.00
C6       0.92076    -0.04445   0.46129   1.00
C6       0.91072    0.05904    0.46479   1.00
C6       0.62975    0.01122    0.51743   1.00
C6       0.60338    0.08902    0.49730   1.00
H2       0.53447    -0.01414   0.50401   1.00
H2       0.56899    0.04032    0.45625   1.00
C6       0.54281    -0.04265   0.43600   1.00
C6       0.46505    -0.03613   0.46188   1.00
H2       0.51758    -0.14245   0.46693   1.00
C6       0.58571    -0.15221   0.48688   1.00
C6       0.48141    -0.14875   0.49731   1.00
H2       0.73585    -0.13912   0.51039   1.00
H2       0.81647    -0.13274   0.50749   1.00
H2       0.74092    -0.21315   0.50681   1.00
H2       0.74726    -0.25190   0.46969   1.00
H2       0.80278    -0.18529   0.45357   1.00
H2       0.83029    -0.19408   0.47769   1.00
H2       0.75113    -0.00936   0.42005   1.00
H2       0.79391    0.03873    0.44140   1.00
H2       0.83327    0.00478    0.42572   1.00
H2       0.71148    -0.18030   0.43679   1.00
H2       0.71651    -0.12868   0.41640   1.00
H2       0.79193    -0.12373   0.42568   1.00
H2       0.90712    -0.05716   0.44535   1.00
H2       0.97521    -0.00681   0.46199   1.00
H2       0.91548    -0.08908   0.46910   1.00
H2       0.92286    0.06560    0.44863   1.00
H2       0.87987    0.08231    0.46779   1.00
H2       0.95870    0.08910    0.47299   1.00
H2       0.68368    0.04888    0.51597   1.00
H2       0.61195    0.02258    0.53153   1.00
H2       0.62504    -0.03872   0.51930   1.00
H2       0.59368    0.10633    0.51176   1.00
H2       0.65638    0.12402    0.49341   1.00
H2       0.57115    0.09482    0.48612   1.00
H2       0.52460    -0.02028   0.42463   1.00
H2       0.59469    -0.02895   0.43164   1.00
H2       0.51089    -0.09797   0.43505   1.00
H2       0.45915    -0.01720   0.47652   1.00
H2       0.44653    -0.01460   0.45034   1.00
H2       0.43193    -0.09146   0.46156   1.00
H2       0.61413    -0.13167   0.50093   1.00
H2       0.55500    -0.20757   0.48840   1.00
H2       0.62226    -0.14199   0.47484   1.00
H2       0.45182    -0.20444   0.49659   1.00
H2       0.50067    -0.13463   0.51279   1.00
H2       0.44589    -0.13044   0.49444   1.00
C4       0.69964    0.87315    0.00312   1.00
C4       0.64765    0.85113    0.01826   1.00
C3       0.75849    0.93909    0.00281   1.00
C3       0.64619    0.89471    0.03350   1.00
C3       0.69240    0.82747    -0.01286   1.00
C3       0.59392    0.78175    0.01838   1.00
C2       0.80078    0.91495    -0.02861   1.00
C2       0.53989    0.80310    0.04809   1.00
C3       0.80750    0.95959    -0.01267   1.00
C3       0.59416    0.87123    0.04812   1.00
C3       0.74305    0.84869    -0.02813   1.00
C3       0.54043    0.75985    0.03271   1.00
H1       0.76760    0.97408    0.01385   1.00
H1       0.68263    0.94487    0.03436   1.00
C5       0.63478    0.76079    -0.01345   1.00
C5       0.59343    0.73469    0.00411   1.00
H1       0.84876    1.00808    -0.01218   1.00
H1       0.59605    0.90490    0.05889   1.00
H1       0.73812    0.81473    -0.03918   1.00
H1       0.50010    0.71120    0.03178   1.00
O3       0.62218    0.72111    -0.03052   1.00
O3       0.55020    0.66532    0.00639   1.00
Si1      0.57166    0.72127    -0.04816   1.00
Si1      0.57398    0.62245    0.02084   1.00
C6       0.58720    0.67314    -0.06625   1.00
C6       0.48762    0.67536    -0.03877   1.00
C6       0.59641    0.80363    -0.05740   1.00
C6       0.65298    0.66758    0.03362   1.00
C6       0.50778    0.58454    0.03869   1.00
C6       0.57210    0.55711    0.00586   1.00
C6       0.66399    0.69566    -0.06999   1.00
H2       0.56518    0.62330    -0.05893   1.00
C6       0.55398    0.65914    -0.08790   1.00
H2       0.49165    0.64207    -0.02757   1.00
C6       0.45845    0.71531    -0.02707   1.00
C6       0.42928    0.62680    -0.05354   1.00
H2       0.65097    0.82480    -0.06005   1.00
C6       0.56546    0.80843    -0.07818   1.00
C6       0.58917    0.85578    -0.04337   1.00
C6       0.71859    0.71066    0.02061   1.00
C6       0.65942    0.71234    0.05253   1.00
H2       0.65887    0.62639    0.04003   1.00
H2       0.51413    0.62730    0.04793   1.00
C6       0.43352    0.55112    0.03004   1.00
C6       0.50898    0.53160    0.05367   1.00
H2       0.51843    0.51749    0.00577   1.00
C6       0.59140    0.57439    -0.01693   1.00
C6       0.61236    0.52186    0.01355   1.00
H2       0.68970    0.69648    -0.05589   1.00
H2       0.69155    0.74652    -0.07673   1.00
H2       0.66894    0.66026    -0.08017   1.00
H2       0.54315    0.60905    -0.09331   1.00
H2       0.50632    0.65980    -0.08816   1.00
H2       0.58776    0.69616    -0.09911   1.00
H2       0.41289    0.68028    -0.01847   1.00
H2       0.49466    0.75090    -0.01610   1.00
H2       0.44404    0.74341    -0.03750   1.00
H2       0.44011    0.58939    -0.06041   1.00
H2       0.38079    0.59754    -0.04551   1.00
H2       0.42165    0.65560    -0.06553   1.00
H2       0.50985    0.77825    -0.07796   1.00
H2       0.57982    0.86099    -0.08199   1.00
H2       0.58450    0.79121    -0.09063   1.00
H2       0.53872    0.85063    -0.04450   1.00
H2       0.59802    0.85094    -0.02747   1.00
H2       0.62625    0.90801    -0.04782   1.00
H2       0.72578    0.76078    0.01700   1.00
H2       0.76390    0.71898    0.02893   1.00
H2       0.71757    0.68541    0.00646   1.00
H2       0.70777    0.72890    0.06038   1.00
H2       0.65819    0.75822    0.04839   1.00
H2       0.61935    0.68429    0.06366   1.00
H2       0.39686    0.53957    0.04233   1.00
H2       0.42781    0.58552    0.01964   1.00
H2       0.41902    0.50368    0.02200   1.00
H2       0.55863    0.55146    0.06094   1.00
H2       0.47157    0.51928    0.06579   1.00
H2       0.49635    0.48403    0.04594   1.00
H2       0.64379    0.61565    -0.01888   1.00
H2       0.58509    0.53009    -0.02537   1.00
H2       0.55806    0.59012    -0.02392   1.00
H2       0.59884    0.47591    0.00472   1.00
H2       0.66741    0.55575    0.01218   1.00
H2       0.60073    0.50598    0.02934   1.00
C4       0.17489    0.30777    0.00099   1.00
C4       0.20296    0.35827    0.01661   1.00
C3       0.13633    0.31076    -0.01555   1.00
C3       0.19008    0.41337    0.01825   1.00
C3       0.18473    0.25030    0.00199   1.00
C3       0.24656    0.35414    0.03148   1.00
C2       0.11698    0.20187    -0.02943   1.00
C2       0.26040    0.45746    0.04891   1.00
C3       0.10783    0.25911    -0.03028   1.00
C3       0.21851    0.46197    0.03384   1.00
C3       0.15664    0.19937    -0.01324   1.00
C3       0.27232    0.40196    0.04756   1.00
H1       0.12802    0.35066    -0.01742   1.00
H1       0.15934    0.41957    0.00824   1.00
C5       0.22281    0.24421    0.01813   1.00
C5       0.26378    0.30205    0.03036   1.00
H1       0.07999    0.26378    -0.04182   1.00
H1       0.20789    0.50105    0.03416   1.00
H1       0.16571    0.15941    -0.01263   1.00
H1       0.29986    0.39578    0.05880   1.00
O3       0.22263    0.18381    0.02092   1.00
O3       0.31589    0.30484    0.04201   1.00
Si1      0.16771    0.12638    0.03644   1.00
Si1      0.39405    0.34854    0.03367   1.00
C6       0.18537    0.06088    0.03032   1.00
C6       0.19409    0.15651    0.06133   1.00
C6       0.08231    0.10211    0.03080   1.00
C6       0.40859    0.39281    0.01045   1.00
C6       0.43640    0.40714    0.05329   1.00
C6       0.42667    0.29245    0.03251   1.00
C6       0.18895    0.04781    0.00711   1.00
H2       0.23742    0.08161    0.03592   1.00
C6       0.14349    -0.01183   0.04010   1.00
H2       0.24872    0.19087    0.05932   1.00
C6       0.16632    0.20035    0.07142   1.00
C6       0.18762    0.10455    0.07806   1.00
H2       0.07997    0.09334    0.01444   1.00
C6       0.02520    0.03396    0.04036   1.00
C6       0.05658    0.15414    0.03443   1.00
C6       0.37032    0.35095    -0.00884   1.00
C6       0.40488    0.46004    0.00970   1.00
H2       0.46236    0.41036    0.00763   1.00
H2       0.41612    0.44179    0.05246   1.00
C6       0.42061    0.37761    0.07536   1.00
C6       0.51569    0.45245    0.05169   1.00
H2       0.44167    0.29035    0.04812   1.00
C6       0.37487    0.21701    0.02684   1.00
C6       0.49158    0.31364    0.01923   1.00
H2       0.22580    0.09428    -0.00073   1.00
H2       0.13935    0.02892    -0.00017   1.00
H2       0.20518    0.01030    0.00463   1.00
H2       0.17617    -0.03416   0.04216   1.00
H2       0.12247    -0.01104   0.05485   1.00
H2       0.10110    -0.04716   0.03052   1.00
H2       0.19693    0.22750    0.08468   1.00
H2       0.16861    0.23912    0.06119   1.00
H2       0.11376    0.16845    0.07652   1.00
H2       0.21452    0.07774    0.07373   1.00
H2       0.21044    0.13043    0.09237   1.00
H2       0.13424    0.06724    0.08107   1.00
H2       0.03102    0.03380    0.05680   1.00
H2       -0.02593   0.02550    0.03721   1.00
H2       0.02574    -0.00997   0.03396   1.00
H2       0.03824    0.15158    0.04989   1.00
H2       0.09519    0.20668    0.03167   1.00
H2       0.01402    0.14273    0.02425   1.00
H2       0.31888    0.34316    -0.00982   1.00
H2       0.39722    0.37805    -0.02259   1.00
H2       0.36686    0.30127    -0.00924   1.00
H2       0.42435    0.48624    -0.00479   1.00
H2       0.35297    0.45040    0.01120   1.00
H2       0.43599    0.49614    0.02145   1.00
H2       0.43969    0.41897    0.08648   1.00
H2       0.36575    0.34608    0.07793   1.00
H2       0.44420    0.34681    0.07861   1.00
H2       0.53145    0.47696    0.03688   1.00
H2       0.53487    0.49321    0.06302   1.00
H2       0.54080    0.42266    0.05435   1.00
H2       0.35388    0.21246    0.01166   1.00
H2       0.39815    0.18488    0.02763   1.00
H2       0.33269    0.19613    0.03750   1.00
H2       0.51268    0.28033    0.02220   1.00
H2       0.47981    0.31030    0.00305   1.00
H2       0.53191    0.36551    0.02252   1.00
C4       0.13370    0.82618    0.00109   1.00
C4       0.15586    0.79794    0.01673   1.00
C3       0.17849    0.87525    -0.01313   1.00
C3       0.22550    0.82043    0.02086   1.00
C3       0.06302    0.80533    -0.00036   1.00
C3       0.10613    0.74405    0.02900   1.00
C2       0.08533    0.88334    -0.02945   1.00
C2       0.19662    0.73928    0.04893   1.00
C3       0.15509    0.90336    -0.02791   1.00
C3       0.24534    0.79150    0.03639   1.00
C3       0.04025    0.83335    -0.01562   1.00
C3       0.12727    0.71761    0.04513   1.00
H1       0.22940    0.89184    -0.01322   1.00
H1       0.26387    0.85878    0.01279   1.00
C5       0.01552    0.75642    0.01339   1.00
C5       0.03563    0.71722    0.02526   1.00
H1       0.18993    0.93903    -0.03770   1.00
H1       0.29642    0.80941    0.03857   1.00
H1       -0.01084   0.81651    -0.01683   1.00
H1       0.09120    0.68212    0.05459   1.00
O3       -0.05022   0.74494    0.01415   1.00
O3       -0.01278   0.65691    0.03412   1.00
Si1      -0.07001   0.78657    0.03045   1.00
Si1      -0.03149   0.58490    0.02324   1.00
C6       -0.15300   0.75921    0.02129   1.00
C6       -0.07232   0.75245    0.05466   1.00
C6       -0.01779   0.87596    0.02854   1.00
C6       0.01344    0.58749    0.00101   1.00
C6       -0.01512   0.54102    0.04236   1.00
C6       -0.11991   0.54097    0.01852   1.00
C6       -0.15974   0.76359    -0.00226   1.00
H2       -0.17944   0.70479    0.02479   1.00
C6       -0.19812   0.78690    0.03074   1.00
H2       -0.08303   0.70105    0.05095   1.00
C6       -0.00534   0.78506    0.06755   1.00
C6       -0.12971   0.74284    0.06980   1.00
H2       -0.01776   0.88431    0.01222   1.00
C6       -0.04444   0.92077    0.03872   1.00
C6       0.05905    0.91073    0.03521   1.00
C6       0.01121    0.62975    -0.01743   1.00
C6       0.08901    0.60338    0.00270   1.00
H2       -0.01416   0.53447    -0.00401   1.00
H2       0.04031    0.56899    0.04375   1.00
C6       -0.04265   0.54282    0.06401   1.00
C6       -0.03614   0.46505    0.03812   1.00
H2       -0.14246   0.51759    0.03308   1.00
C6       -0.15222   0.58572    0.01312   1.00
C6       -0.14876   0.48141    0.00270   1.00
H2       -0.13912   0.73586    -0.01039   1.00
H2       -0.13274   0.81648    -0.00748   1.00
H2       -0.21315   0.74094    -0.00681   1.00
H2       -0.25189   0.74729    0.03031   1.00
H2       -0.18528   0.80280    0.04644   1.00
H2       -0.19407   0.83031    0.02231   1.00
H2       -0.00935   0.75115    0.07995   1.00
H2       0.03874    0.79392    0.05861   1.00
H2       0.00479    0.83328    0.07428   1.00
H2       -0.18028   0.71150    0.06322   1.00
H2       -0.12867   0.71653    0.08360   1.00
H2       -0.12371   0.79195    0.07433   1.00
H2       -0.05715   0.90714    0.05465   1.00
H2       -0.00679   0.97522    0.03801   1.00
H2       -0.08906   0.91550    0.03090   1.00
H2       0.06561    0.92287    0.05137   1.00
H2       0.08232    0.87987    0.03221   1.00
H2       0.08912    0.95870    0.02701   1.00
H2       0.04888    0.68367    -0.01597   1.00
H2       0.02256    0.61195    -0.03152   1.00
H2       -0.03873   0.62504    -0.01930   1.00
H2       0.10632    0.59368    -0.01176   1.00
H2       0.12401    0.65638    0.00659   1.00
H2       0.09481    0.57115    0.01388   1.00
H2       -0.02029   0.52461    0.07537   1.00
H2       -0.02895   0.59470    0.06837   1.00
H2       -0.09798   0.51090    0.06495   1.00
H2       -0.01722   0.45915    0.02348   1.00
H2       -0.01461   0.44653    0.04967   1.00
H2       -0.09147   0.43194    0.03845   1.00
H2       -0.13167   0.61414    -0.00093   1.00
H2       -0.20758   0.55501    0.01161   1.00
H2       -0.14199   0.62228    0.02517   1.00
H2       -0.20445   0.45183    0.00342   1.00
H2       -0.13465   0.50067    -0.01278   1.00
H2       -0.13045   0.44590    0.00557   1.00
C4       0.12648    0.30555    0.50151   1.00
C4       0.14862    0.35594    0.51715   1.00
C3       0.05889    0.27057    0.49381   1.00
C3       0.10404    0.37189    0.52791   1.00
C3       0.17390    0.28797    0.49321   1.00
C3       0.21917    0.39295    0.52244   1.00
C2       0.08486    0.20186    0.47058   1.00
C2       0.19709    0.45747    0.54890   1.00
C3       0.03850    0.21989    0.47885   1.00
C3       0.12766    0.42170    0.54322   1.00
C3       0.15266    0.23760    0.47786   1.00
C3       0.24145    0.44085    0.53850   1.00
H1       0.02254    0.28107    0.49878   1.00
H1       0.05303    0.34751    0.52503   1.00
C5       0.24229    0.32103    0.50024   1.00
C5       0.26704    0.38162    0.51183   1.00
H1       -0.01119   0.19597    0.47397   1.00
H1       0.09319    0.43150    0.55036   1.00
H1       0.18770    0.22688    0.47165   1.00
H1       0.29132    0.46374    0.54298   1.00
O3       0.28456    0.29628    0.49473   1.00
O3       0.33636    0.42567    0.51387   1.00
Si1      0.29167    0.24220    0.50947   1.00
Si1      0.37282    0.49404    0.49978   1.00
C6       0.34009    0.22246    0.49269   1.00
C6       0.34025    0.28792    0.53073   1.00
C6       0.21267    0.16919    0.51517   1.00
C6       0.32108    0.50997    0.48317   1.00
C6       0.41073    0.56017    0.51766   1.00
C6       0.43845    0.49162    0.48613   1.00
C6       0.31339    0.20589    0.47030   1.00
H2       0.38811    0.27078    0.49186   1.00
C6       0.36023    0.16747    0.49834   1.00
H2       0.36967    0.33956    0.52469   1.00
C6       0.30194    0.29352    0.54972   1.00
C6       0.39408    0.27050    0.53941   1.00
H2       0.18874    0.15433    0.50024   1.00
C6       0.21445    0.10550    0.52370   1.00
C6       0.16055    0.17604    0.52933   1.00
C6       0.27732    0.45414    0.46713   1.00
C6       0.27406    0.53617    0.49197   1.00
H2       0.35886    0.55326    0.47436   1.00
H2       0.36749    0.56068    0.52477   1.00
C6       0.45009    0.54910    0.53542   1.00
C6       0.45846    0.63389    0.50943   1.00
H2       0.48053    0.51010    0.49694   1.00
C6       0.42484    0.41967    0.47964   1.00
C6       0.46767    0.53818    0.46694   1.00
H2       0.30791    0.24711    0.46368   1.00
H2       0.26387    0.15910    0.46951   1.00
H2       0.34890    0.19942    0.46059   1.00
H2       0.41009    0.18162    0.49191   1.00
H2       0.36329    0.16174    0.51461   1.00
H2       0.32435    0.11721    0.49224   1.00
H2       0.33731    0.33418    0.55984   1.00
H2       0.26296    0.30606    0.54560   1.00
H2       0.27814    0.24616    0.55842   1.00
H2       0.43042    0.27501    0.52779   1.00
H2       0.42426    0.30581    0.55152   1.00
H2       0.36939    0.21901    0.54572   1.00
H2       0.24757    0.11894    0.53697   1.00
H2       0.16374    0.06456    0.52811   1.00
H2       0.23190    0.08310    0.51229   1.00
H2       0.16955    0.17113    0.54534   1.00
H2       0.16143    0.22405    0.52762   1.00
H2       0.10854    0.13572    0.52588   1.00
H2       0.22946    0.41452    0.47356   1.00
H2       0.26429    0.47664    0.45445   1.00
H2       0.30433    0.42993    0.46080   1.00
H2       0.25298    0.55270    0.47973   1.00
H2       0.23100    0.49686    0.50038   1.00
H2       0.30183    0.58020    0.50188   1.00
H2       0.46158    0.58671    0.54742   1.00
H2       0.41958    0.49885    0.54235   1.00
H2       0.49820    0.55395    0.53037   1.00
H2       0.43424    0.64694    0.49729   1.00
H2       0.47077    0.67143    0.52151   1.00
H2       0.50649    0.63991    0.50376   1.00
H2       0.38169    0.39439    0.46929   1.00
H2       0.46939    0.42231    0.47234   1.00
H2       0.41367    0.38749    0.49293   1.00
H2       0.51443    0.54005    0.46172   1.00
H2       0.43126    0.51924    0.45439   1.00
H2       0.48071    0.59057    0.47011   1.00
C4       0.69540    0.82103    0.50178   1.00
C4       0.64490    0.79297    0.51739   1.00
C3       0.74110    0.79701    0.49732   1.00
C3       0.63915    0.74242    0.53128   1.00
C3       0.70173    0.87694    0.49008   1.00
C3       0.59704    0.81619    0.51936   1.00
C2       0.79837    0.88272    0.47063   1.00
C2       0.54230    0.73990    0.54885   1.00
C3       0.79142    0.82721    0.48226   1.00
C3       0.58888    0.71613    0.54646   1.00
C3       0.75199    0.90588    0.47469   1.00
C3       0.54865    0.79116    0.53530   1.00
H1       0.73901    0.75671    0.50484   1.00
H1       0.67157    0.72351    0.53087   1.00
C5       0.65761    0.90339    0.49375   1.00
C5       0.59803    0.86466    0.50556   1.00
H1       0.82337    0.80798    0.47981   1.00
H1       0.58678    0.67921    0.55596   1.00
H1       0.75469    0.94472    0.46604   1.00
H1       0.51762    0.81146    0.53730   1.00
O3       0.67103    0.96397    0.48489   1.00
O3       0.54459    0.87766    0.50463   1.00
Si1      0.71548    1.03556    0.49718   1.00
Si1      0.47838    0.82844    0.49070   1.00
C6       0.72438    1.09068    0.47701   1.00
C6       0.66294    1.03800    0.51651   1.00
C6       0.79557    1.04922    0.50540   1.00
C6       0.47698    0.75879    0.47813   1.00
C6       0.41051    0.79800    0.50803   1.00
C6       0.46812    0.88111    0.47308   1.00
C6       0.74685    1.07502    0.45613   1.00
H2       0.67196    1.07936    0.47474   1.00
C6       0.76782    1.17018    0.47953   1.00
H2       0.61206    1.00462    0.51039   1.00
C6       0.66410    1.00793    0.53777   1.00
C6       0.66602    1.10730    0.52110   1.00
H2       0.81519    1.03762    0.49173   1.00
C6       0.85023    1.12368    0.51161   1.00
C6       0.79904    1.00361    0.52280   1.00
C6       0.53684    0.77392    0.46331   1.00
C6       0.46295    0.69411    0.49058   1.00
H2       0.43196    0.74033    0.46849   1.00
H2       0.41841    0.76358    0.51775   1.00
C6       0.41011    0.85227    0.52266   1.00
C6       0.33662    0.75546    0.49932   1.00
H2       0.44194    0.90246    0.48166   1.00
C6       0.53481    0.94415    0.46523   1.00
C6       0.42310    0.84682    0.45387   1.00
H2       0.71250    1.02257    0.45130   1.00
H2       0.79840    1.08261    0.45696   1.00
H2       0.74607    1.10800    0.44415   1.00
H2       0.74560    1.19477    0.47052   1.00
H2       0.77053    1.18670    0.49514   1.00
H2       0.82011    1.19076    0.47415   1.00
H2       0.61993    0.99919    0.54681   1.00
H2       0.66172    0.95886    0.53657   1.00
H2       0.70977    1.04278    0.54629   1.00
H2       0.65563    1.12822    0.50754   1.00
H2       0.62743    1.10082    0.53226   1.00
H2       0.71575    1.14472    0.52719   1.00
H2       0.83010    1.14394    0.52301   1.00
H2       0.89635    1.12639    0.51781   1.00
H2       0.86740    1.15753    0.49857   1.00
H2       0.79981    1.02425    0.53782   1.00
H2       0.75689    0.95163    0.52263   1.00
H2       0.84572    1.00082    0.52138   1.00
H2       0.58101    0.77860    0.47135   1.00
H2       0.52115    0.73236    0.45239   1.00
H2       0.55308    0.82037    0.45460   1.00
H2       0.45414    0.65230    0.48041   1.00
H2       0.50563    0.70355    0.50029   1.00
H2       0.41744    0.67509    0.50000   1.00
H2       0.37345    0.82715    0.53495   1.00
H2       0.45992    0.88364    0.52976   1.00
H2       0.39628    0.88606    0.51483   1.00
H2       0.33152    0.71475    0.48933   1.00
H2       0.29984    0.73117    0.51164   1.00
H2       0.32184    0.78763    0.49092   1.00
H2       0.56714    0.92944    0.45695   1.00
H2       0.52390    0.97621    0.45533   1.00
H2       0.56403    0.97562    0.47796   1.00
H2       0.41218    0.88259    0.44587   1.00
H2       0.44868    0.83002    0.44321   1.00
H2       0.37405    0.80288    0.45787   1.00
C4       0.17898    0.87433    0.50176   1.00
C4       0.20705    0.85190    0.51738   1.00
C3       0.20357    0.94404    0.49713   1.00
C3       0.25824    0.89680    0.53110   1.00
C3       0.12248    0.82476    0.49025   1.00
C3       0.18317    0.78074    0.51953   1.00
C2       0.11727    0.91562    0.47063   1.00
C2       0.26011    0.80243    0.54885   1.00
C3       0.17336    0.96417    0.48207   1.00
C3       0.28452    0.87284    0.54628   1.00
C3       0.09353    0.84608    0.47486   1.00
C3       0.20823    0.75744    0.53547   1.00
H1       0.24430    0.98222    0.50450   1.00
H1       0.27764    0.94819    0.53055   1.00
C5       0.09544    0.75421    0.49411   1.00
C5       0.13403    0.73314    0.50590   1.00
H1       0.19301    1.01533    0.47949   1.00
H1       0.32191    0.90771    0.55566   1.00
H1       0.05424    0.80992    0.46635   1.00
H1       0.18750    0.70612    0.53761   1.00
O3       0.03442    0.70723    0.48543   1.00
O3       0.12028    0.66643    0.50512   1.00
Si1      -0.03671   0.68117    0.49789   1.00
Si1      0.16859    0.64830    0.49115   1.00
C6       -0.09263   0.63471    0.47789   1.00
C6       -0.03924   0.62651    0.51733   1.00
C6       -0.04925   0.74843    0.50599   1.00
C6       0.23828    0.71572    0.47833   1.00
C6       0.19890    0.61083    0.50851   1.00
C6       0.11498    0.58509    0.47374   1.00
C6       -0.07721   0.67222    0.45692   1.00
H2       -0.08195   0.59315    0.47569   1.00
C6       -0.17201   0.59948    0.48061   1.00
H2       -0.00645   0.60830    0.51120   1.00
C6       -0.00836   0.65823    0.53848   1.00
C6       -0.10878   0.56087    0.52217   1.00
H2       -0.03774   0.77926    0.49224   1.00
C6       -0.12331   0.72960    0.51235   1.00
C6       -0.00282   0.79779    0.52323   1.00
C6       0.22335    0.76044    0.46345   1.00
C6       0.30353    0.76628    0.49059   1.00
H2       0.25603    0.68848    0.46872   1.00
H2       0.23390    0.65329    0.51810   1.00
C6       0.14473    0.55696    0.52334   1.00
C6       0.24055    0.57850    0.49980   1.00
H2       0.09343    0.53780    0.48245   1.00
C6       0.05214    0.58927    0.46598   1.00
C6       0.14837    0.57327    0.45451   1.00
H2       -0.02501   0.68964    0.45197   1.00
H2       -0.08421   0.71656    0.45767   1.00
H2       -0.11075   0.63829    0.44506   1.00
H2       -0.19727   0.55241    0.47174   1.00
H2       -0.18815   0.58627    0.49628   1.00
H2       -0.19224   0.63146    0.47520   1.00
H2       0.00016    0.62276    0.54758   1.00
H2       0.04094    0.70456    0.53711   1.00
H2       -0.04262   0.66980    0.54703   1.00
H2       -0.13034   0.52921    0.50870   1.00
H2       -0.10240   0.52885    0.53337   1.00
H2       -0.14565   0.57390    0.52829   1.00
H2       -0.14360   0.68957    0.52387   1.00
H2       -0.12530   0.77350    0.51847   1.00
H2       -0.15754   0.71282    0.49940   1.00
H2       -0.02314   0.77852    0.53832   1.00
H2       0.04895    0.80704    0.52295   1.00
H2       0.00051    0.84748    0.52170   1.00
H2       0.21941    0.80047    0.47142   1.00
H2       0.26465    0.78561    0.45241   1.00
H2       0.17656    0.73033    0.45487   1.00
H2       0.34519    0.79865    0.48028   1.00
H2       0.29483    0.80014    0.50024   1.00
H2       0.32239    0.73970    0.50003   1.00
H2       0.16991    0.54542    0.53561   1.00
H2       0.11398    0.57611    0.53045   1.00
H2       0.11034    0.50921    0.51565   1.00
H2       0.28115    0.61352    0.48968   1.00
H2       0.26490    0.56603    0.51211   1.00
H2       0.20777    0.53140    0.49155   1.00
H2       0.06709    0.63615    0.45758   1.00
H2       0.01947    0.54612    0.45622   1.00
H2       0.02120    0.58778    0.47876   1.00
H2       0.11203    0.52648    0.44665   1.00
H2       0.16527    0.61536    0.44374   1.00
H2       0.19210    0.56772    0.45845   1.00
C4       0.30426    0.13457    0.99788   1.00
C4       0.35613    0.15635    0.98271   1.00
C3       0.30120    0.17904    1.01249   1.00
C3       0.41342    0.22326    0.98177   1.00
C3       0.25291    0.06431    0.99885   1.00
C3       0.35093    0.10913    0.96749   1.00
C2       0.19968    0.08595    1.02872   1.00
C2       0.45965    0.19600    0.95180   1.00
C3       0.25061    0.15539    1.02756   1.00
C3       0.46345    0.24276    0.96664   1.00
C3       0.20155    0.04169    1.01393   1.00
C3       0.40338    0.12896    0.95290   1.00
H1       0.33550    0.22996    1.01257   1.00
H1       0.42073    0.25967    0.99213   1.00
C5       0.25301    0.01715    0.98469   1.00
C5       0.29384    0.04224    0.96700   1.00
H1       0.25125    0.18983    1.03781   1.00
H1       0.50345    0.29200    0.96661   1.00
H1       0.16396    -0.00850   1.01409   1.00
H1       0.40112    0.09334    0.94291   1.00
O3       0.21071    -0.05179   0.98770   1.00
O3       0.28092    0.00049    0.95033   1.00
Si1      0.23912    -0.09571   0.99968   1.00
Si1      0.23895    0.00737    0.93122   1.00
C6       0.16045    -0.17252   1.00158   1.00
C6       0.29546    -0.10461   0.98319   1.00
C6       0.27276    -0.06253   1.02388   1.00
C6       0.21453    0.07023    0.93243   1.00
C6       0.29486    0.02490    0.91074   1.00
C6       0.16688    -0.07364   0.92725   1.00
C6       0.09852    -0.16561   1.00913   1.00
H2       0.14924    -0.18844   0.98575   1.00
C6       0.15469    -0.23565   1.01325   1.00
H2       0.27719    -0.09949   0.96834   1.00
C6       0.37283    -0.04919   0.98384   1.00
C6       0.29397    -0.17444   0.98262   1.00
H2       0.23316    -0.05409   1.03036   1.00
C6       0.28175    -0.11078   1.03903   1.00
C6       0.34156    0.00714    1.02562   1.00
C6       0.16962    0.06811    0.95074   1.00
C6       0.26953    0.14706    0.92927   1.00
H2       0.18177    0.05827    0.91913   1.00
H2       0.33624    0.07660    0.91372   1.00
C6       0.32961    -0.01984   0.90926   1.00
C6       0.26746    0.02600    0.88905   1.00
H2       0.18657    -0.10125   0.91864   1.00
C6       0.13399    -0.11781   0.94656   1.00
C6       0.10657    -0.07805   0.91443   1.00
H2       0.09120    -0.13004   0.99974   1.00
H2       0.10581    -0.14752   1.02481   1.00
H2       0.05098    -0.21451   1.00840   1.00
H2       0.11631    -0.28292   1.00605   1.00
H2       0.20228    -0.23642   1.01349   1.00
H2       0.13851    -0.23783   1.02897   1.00
H2       0.39914    -0.05224   0.97031   1.00
H2       0.38060    0.00227    0.98414   1.00
H2       0.39797    -0.05604   0.99701   1.00
H2       0.24300    -0.21649   0.97921   1.00
H2       0.32738    -0.17503   0.97073   1.00
H2       0.31102    -0.18460   0.99703   1.00
H2       0.31174    -0.13130   1.03225   1.00
H2       0.30723    -0.08449   1.05305   1.00
H2       0.23276    -0.15281   1.04380   1.00
H2       0.38594    0.00028    1.02519   1.00
H2       0.34844    0.04310    1.01375   1.00
H2       0.34339    0.03190    1.04004   1.00
H2       0.20040    0.09315    0.96409   1.00
H2       0.14196    0.09473    0.94695   1.00
H2       0.13166    0.01623    0.95490   1.00
H2       0.24525    0.17815    0.92759   1.00
H2       0.30445    0.16785    0.94204   1.00
H2       0.29945    0.15503    0.91554   1.00
H2       0.37155    0.00216    0.89832   1.00
H2       0.35147    -0.02227   0.92380   1.00
H2       0.29386    -0.07185   0.90443   1.00
H2       0.24397    0.05791    0.88848   1.00
H2       0.30928    0.04707    0.87806   1.00
H2       0.23015    -0.02527   0.88397   1.00
H2       0.11441    -0.09413   0.95693   1.00
H2       0.09225    -0.16858   0.94270   1.00
H2       0.17174    -0.12480   0.95469   1.00
H2       0.07014    -0.13096   0.91046   1.00
H2       0.07885    -0.05786   0.92280   1.00
H2       0.12433    -0.05005   0.90021   1.00
C4       0.82132    0.69615    0.99800   1.00
C4       0.79337    0.64553    0.98242   1.00
C3       0.80571    0.74925    1.00015   1.00
C3       0.75204    0.64656    0.96638   1.00
C3       0.86838    0.69472    1.01212   1.00
C3       0.80699    0.59042    0.98274   1.00
C2       0.88258    0.79859    1.02931   1.00
C2       0.74004    0.54208    0.95121   1.00
C3       0.83576    0.79930    1.01530   1.00
C3       0.72556    0.59594    0.95131   1.00
C3       0.89716    0.74494    1.02752   1.00
C3       0.78224    0.54155    0.96693   1.00
H1       0.77187    0.75299    0.99083   1.00
H1       0.74029    0.68434    0.96510   1.00
C5       0.88615    0.64298    1.01082   1.00
C5       0.84568    0.58462    0.99871   1.00
H1       0.82289    0.83676    1.01603   1.00
H1       0.69549    0.59898    0.94017   1.00
H1       0.92937    0.74216    1.03789   1.00
H1       0.79605    0.50492    0.96667   1.00
O3       0.93963    0.64820    1.02218   1.00
O3       0.84810    0.52538    1.00155   1.00
Si1      1.01601    0.68340    1.01237   1.00
Si1      0.78761    0.46338    1.01459   1.00
C6       1.05966    0.68544    1.03477   1.00
C6       1.01653    0.62544    0.99462   1.00
C6       1.04472    0.76638    1.00295   1.00
C6       0.72008    0.47398    1.02373   1.00
C6       0.75525    0.39444    0.99762   1.00
C6       0.82680    0.44513    1.03482   1.00
C6       1.04165    0.71345    1.05414   1.00
H2       1.03988    0.63130    1.03774   1.00
C6       1.13939    0.71897    1.03504   1.00
H2       0.97573    0.57676    1.00031   1.00
C6       0.99749    0.63006    0.97209   1.00
C6       1.08109    0.61725    0.99332   1.00
H2       1.03253    0.79019    1.01544   1.00
C6       1.12314    0.81247    0.99905   1.00
C6       1.01067    0.77624    0.98344   1.00
C6       0.73825    0.53665    1.03767   1.00
C6       0.66412    0.46852    1.00863   1.00
H2       0.69239    0.42942    1.03347   1.00
H2       0.72918    0.40777    0.98614   1.00
C6       0.80940    0.38427    0.98574   1.00
C6       0.70141    0.32279    1.00598   1.00
H2       0.84479    0.41308    1.02798   1.00
C6       0.89179    0.50692    1.04399   1.00
C6       0.78135    0.40379    1.05327   1.00
H2       0.98694    0.68547    1.05724   1.00
H2       1.05741    0.76737    1.05244   1.00
H2       1.06678    0.70814    1.06761   1.00
H2       1.15448    0.69183    1.04567   1.00
H2       1.16046    0.71812    1.02030   1.00
H2       1.16468    0.77200    1.04008   1.00
H2       0.98557    0.58356    0.96380   1.00
H2       0.95250    0.63549    0.97098   1.00
H2       1.03962    0.67275    0.96423   1.00
H2       1.09318    0.60369    1.00801   1.00
H2       1.07291    0.57621    0.98290   1.00
H2       1.12532    0.66404    0.98788   1.00
H2       1.14220    0.78687    0.98921   1.00
H2       1.13557    0.86098    0.99191   1.00
H2       1.15167    0.82629    1.01317   1.00
H2       1.03490    0.77270    0.96953   1.00
H2       0.95679    0.73950    0.98214   1.00
H2       1.01544    0.82676    0.98358   1.00
H2       0.75281    0.58262    1.02887   1.00
H2       0.69421    0.52729    1.04687   1.00
H2       0.77956    0.54714    1.04813   1.00
H2       0.62129    0.46652    1.01691   1.00
H2       0.68333    0.51202    0.99844   1.00
H2       0.64286    0.42221    0.99950   1.00
H2       0.78518    0.34821    0.97325   1.00
H2       0.84856    0.43204    0.97900   1.00
H2       0.83460    0.36455    0.99545   1.00
H2       0.66025    0.32457    1.01404   1.00
H2       0.67794    0.28647    0.99351   1.00
H2       0.72479    0.30236    1.01620   1.00
H2       0.88091    0.54446    1.05071   1.00
H2       0.91516    0.49075    1.05560   1.00
H2       0.92967    0.53224    1.03219   1.00
H2       0.80876    0.38688    1.06318   1.00
H2       0.76659    0.43460    1.06240   1.00
H2       0.73508    0.35807    1.04840   1.00
C4       0.87431    0.17899    0.99824   1.00
C4       0.85189    0.20706    0.98263   1.00
C3       0.94401    0.20382    1.00296   1.00
C3       0.89682    0.25853    0.96898   1.00
C3       0.82475    0.12222    1.00968   1.00
C3       0.78070    0.18290    0.98040   1.00
C2       0.91561    0.11726    1.02937   1.00
C2       0.80244    0.26012    0.95115   1.00
C3       0.96414    0.17361    1.01801   1.00
C3       0.87287    0.28480    0.95379   1.00
C3       0.84607    0.09327    1.02506   1.00
C3       0.75743    0.20797    0.96445   1.00
H1       0.98217    0.24474    0.99564   1.00
H1       0.94824    0.27814    0.96959   1.00
C5       0.75421    0.09494    1.00573   1.00
C5       0.73304    0.13346    0.99395   1.00
H1       1.01530    0.19345    1.02065   1.00
H1       0.90776    0.32239    0.94447   1.00
H1       0.80990    0.05379    1.03352   1.00
H1       0.70611    0.18704    0.96225   1.00
O3       0.70731    0.03371    1.01433   1.00
O3       0.66622    0.11938    0.99466   1.00
Si1      0.68174    -0.03721   1.00180   1.00
Si1      0.64759    0.16729    1.00865   1.00
C6       0.63517    -0.09348   1.02172   1.00
C6       0.62721    -0.03977   0.98231   1.00
C6       0.74935    -0.04925   0.99375   1.00
C6       0.71464    0.23698    1.02157   1.00
C6       0.61010    0.19754    0.99128   1.00
C6       0.58426    0.11326    1.02597   1.00
C6       0.67241    -0.07817   1.04273   1.00
H2       0.59342    -0.08307   1.02389   1.00
C6       0.60031    -0.17279   1.01892   1.00
H2       0.60870    -0.00724   0.98845   1.00
C6       0.65915    -0.00853   0.96120   1.00
C6       0.56184    -0.10941   0.97737   1.00
H2       0.78002    -0.03778   1.00753   1.00
C6       0.73096    -0.12313   0.98732   1.00
C6       0.79884    -0.00246   0.97659   1.00
C6       0.75935    0.22214    1.03648   1.00
C6       0.76516    0.30249    1.00941   1.00
H2       0.68710    0.25442    1.03117   1.00
H2       0.65262    0.23279    0.98175   1.00
C6       0.55658    0.14341    0.97636   1.00
C6       0.57735    0.23879    0.99998   1.00
H2       0.53708    0.09163    1.01720   1.00
C6       0.58868    0.05051    1.03369   1.00
C6       0.57197    0.14626    1.04521   1.00
H2       0.68953    -0.02608   1.04773   1.00
H2       0.71692    -0.08490   1.04202   1.00
H2       0.63840    -0.11194   1.05454   1.00
H2       0.55312    -0.19835   1.02773   1.00
H2       0.58737    -0.18876   1.00322   1.00
H2       0.63241    -0.19287   1.02434   1.00
H2       0.62367    -0.00011   0.95209   1.00
H2       0.70532    0.04086    0.96265   1.00
H2       0.67105    -0.04253   0.95264   1.00
H2       0.53002    -0.13125   0.99079   1.00
H2       0.52985    -0.10308   0.96614   1.00
H2       0.57518    -0.14604   0.97123   1.00
H2       0.69109    -0.14343   0.97575   1.00
H2       0.77507    -0.12480   0.98124   1.00
H2       0.71413    -0.15752   1.00024   1.00
H2       0.77983    -0.02264   0.96147   1.00
H2       0.80783    0.04922    0.97691   1.00
H2       0.84862    0.00110    0.97816   1.00
H2       0.79962    0.21853    1.02855   1.00
H2       0.78421    0.26333    1.04757   1.00
H2       0.72929    0.17521    1.04500   1.00
H2       0.79725    0.34407    1.01977   1.00
H2       0.79929    0.29411    0.99978   1.00
H2       0.73854    0.32127    0.99996   1.00
H2       0.54505    0.16862    0.96410   1.00
H2       0.57605    0.11294    0.96925   1.00
H2       0.50878    0.10877    0.98399   1.00
H2       0.61210    0.27934    1.01017   1.00
H2       0.56488    0.26316    0.98768   1.00
H2       0.53018    0.20575    1.00817   1.00
H2       0.63548    0.06556    1.04214   1.00
H2       0.54545    0.01758    1.04339   1.00
H2       0.58753    0.01981    1.02088   1.00
H2       0.52513    0.10966    1.05300   1.00
H2       0.61392    0.16319    1.05603   1.00
H2       0.56622    0.18989    1.04130   1.00
C4       0.53398    1.02553    0.83235   1.00
C4       0.51149    0.97500    0.81674   1.00
C3       0.49345    1.02119    0.84934   1.00
C3       0.44422    0.91839    0.81559   1.00
C3       0.60023    1.08442    0.83089   1.00
C3       0.55844    0.98071    0.80136   1.00
C2       0.58187    1.13149    0.86275   1.00
C2       0.46952    0.87584    0.78443   1.00
C3       0.51654    1.07286    0.86406   1.00
C3       0.42395    0.86981    0.79999   1.00
C3       0.62307    1.13537    0.84611   1.00
C3       0.53618    0.93282    0.78530   1.00
H1       0.44607    0.98026    0.85155   1.00
H1       0.40785    0.91101    0.82597   1.00
C5       0.64335    1.09190    0.81430   1.00
C5       0.62713    1.03442    0.80196   1.00
H1       0.48478    1.06717    0.87594   1.00
H1       0.37482    0.82960    0.80003   1.00
H1       0.67142    1.17642    0.84515   1.00
H1       0.56916    0.94005    0.77372   1.00
O3       0.70208    1.15338    0.81113   1.00
O3       0.67628    1.03344    0.78976   1.00
Si1      0.70093    1.20962    0.79589   1.00
Si1      0.71383    0.99198    0.79749   1.00
C6       0.78371    1.27707    0.80140   1.00
C6       0.69576    1.17969    0.77090   1.00
C6       0.63835    1.23116    0.80233   1.00
C6       0.68756    0.94769    0.82081   1.00
C6       0.69755    0.93371    0.77776   1.00
C6       0.80213    1.05036    0.79793   1.00
C6       0.80249    1.29075    0.82447   1.00
H2       0.81582    1.25787    0.79534   1.00
C6       0.81138    1.34943    0.79164   1.00
H2       0.71789    1.14679    0.77251   1.00
C6       0.62352    1.13389    0.76139   1.00
C6       0.73843    1.23219    0.75393   1.00
H2       0.64620    1.24018    0.81865   1.00
C6       0.64606    1.29830    0.79299   1.00
C6       0.56080    1.17717    0.79931   1.00
C6       0.69156    0.98906    0.84025   1.00
C6       0.61797    0.87909    0.82202   1.00
H2       0.72538    0.93189    0.82313   1.00
H2       0.64302    0.89766    0.77904   1.00
C6       0.70821    0.96296    0.75570   1.00
C6       0.73401    0.89059    0.77876   1.00
H2       0.81790    1.05291    0.78216   1.00
C6       0.82392    1.12528    0.80371   1.00
C6       0.84876    1.03137    0.81061   1.00
H2       0.79523    1.24490    0.83218   1.00
H2       0.77124    1.30818    0.83219   1.00
H2       0.85602    1.32959    0.82653   1.00
H2       0.86632    1.37338    0.78908   1.00
H2       0.78773    1.34767    0.77714   1.00
H2       0.80381    1.38390    0.80148   1.00
H2       0.62674    1.10726    0.74796   1.00
H2       0.58886    1.09459    0.77184   1.00
H2       0.60078    1.16433    0.75669   1.00
H2       0.79251    1.26055    0.75779   1.00
H2       0.73487    1.20655    0.73953   1.00
H2       0.72037    1.26813    0.75129   1.00
H2       0.65049    1.29852    0.77649   1.00
H2       0.60263    1.30502    0.79666   1.00
H2       0.69031    1.34313    0.79911   1.00
H2       0.54310    1.17891    0.78404   1.00
H2       0.54888    1.12515    0.80196   1.00
H2       0.52968    1.18727    0.80989   1.00
H2       0.64694    0.99506    0.84177   1.00
H2       0.69375    0.96262    0.85386   1.00
H2       0.73678    1.03954    0.84039   1.00
H2       0.61355    0.85329    0.83644   1.00
H2       0.57442    0.88692    0.82103   1.00
H2       0.61308    0.84338    0.81014   1.00
H2       0.68599    0.92145    0.74463   1.00
H2       0.68302    0.99297    0.75356   1.00
H2       0.76210    0.99520    0.75200   1.00
H2       0.72750    0.86638    0.79354   1.00
H2       0.71245    0.84970    0.76747   1.00
H2       0.78850    0.92185    0.77563   1.00
H2       0.80853    1.12928    0.81909   1.00
H2       0.87903    1.15888    0.80247   1.00
H2       0.80039    1.14484    0.79340   1.00
H2       0.90260    1.06607    0.80720   1.00
H2       0.84168    1.03450    0.82689   1.00
H2       0.83864    0.98004    0.80719   1.00
C4       -0.02581   0.50715    0.83224   1.00
C4       0.02459    0.53538    0.81660   1.00
C3       -0.03012   0.45803    0.84645   1.00
C3       0.07170    0.51286    0.81246   1.00
C3       -0.07561   0.52804    0.83370   1.00
C3       0.02878    0.58931    0.80434   1.00
C2       -0.13134   0.44998    0.86278   1.00
C2       0.12401    0.59406    0.78440   1.00
C3       -0.08164   0.42993    0.86123   1.00
C3       0.12047    0.54179    0.79693   1.00
C3       -0.12639   0.50002    0.84896   1.00
C3       0.07637    0.61576    0.78821   1.00
H1       0.00418    0.44142    0.84653   1.00
H1       0.07170    0.47448    0.82052   1.00
C5       -0.07417   0.57699    0.81996   1.00
C5       -0.01484   0.61618    0.80809   1.00
H1       -0.08249   0.39423    0.87101   1.00
H1       0.15362    0.52386    0.79474   1.00
H1       -0.16062   0.51689    0.85018   1.00
H1       0.07581    0.65128    0.77876   1.00
O3       -0.12839   0.58852    0.81921   1.00
O3       -0.00291   0.67652    0.79924   1.00
Si1      -0.18983   0.54694    0.80291   1.00
Si1      0.05043    0.74850    0.81013   1.00
C6       -0.24542   0.57434    0.81208   1.00
C6       -0.15800   0.58110    0.77870   1.00
C6       -0.22705   0.45754    0.80480   1.00
C6       0.09275    0.74583    0.83235   1.00
C6       0.11068    0.79238    0.79102   1.00
C6       0.00599    0.79247    0.81487   1.00
C6       -0.25653   0.56992    0.83563   1.00
H2       -0.21741   0.62877    0.80859   1.00
C6       -0.31822   0.54671    0.80264   1.00
H2       -0.11730   0.63247    0.78242   1.00
C6       -0.12367   0.54847    0.76580   1.00
C6       -0.20577   0.59077    0.76357   1.00
H2       -0.23537   0.44917    0.82113   1.00
C6       -0.29852   0.41278    0.79463   1.00
C6       -0.18502   0.42275    0.79812   1.00
C6       0.04825    0.70356    0.85079   1.00
C6       0.15240    0.72990    0.83065   1.00
H2       0.11821    0.79885    0.83738   1.00
H2       0.13811    0.76438    0.78961   1.00
C6       0.08136    0.79064    0.76937   1.00
C6       0.16567    0.86833    0.79526   1.00
H2       0.00683    0.81588    0.80031   1.00
C6       -0.07107   0.74775    0.82027   1.00
C6       0.03672    0.85200    0.83070   1.00
H2       -0.20818   0.59762    0.84376   1.00
H2       -0.28245   0.51702    0.84085   1.00
H2       -0.28725   0.59260    0.84019   1.00
H2       -0.33234   0.58635    0.80307   1.00
H2       -0.32129   0.53083    0.78693   1.00
H2       -0.35759   0.50330    0.81106   1.00
H2       -0.09376   0.58240    0.75341   1.00
H2       -0.08848   0.53956    0.77474   1.00
H2       -0.16179   0.50027    0.75907   1.00
H2       -0.22497   0.62213    0.77016   1.00
H2       -0.17841   0.61709    0.74977   1.00
H2       -0.24890   0.54168    0.75904   1.00
H2       -0.29759   0.42645    0.77870   1.00
H2       -0.31535   0.35833    0.79533   1.00
H2       -0.33785   0.41808    0.80244   1.00
H2       -0.19061   0.41063    0.78196   1.00
H2       -0.13089   0.45356    0.80112   1.00
H2       -0.20296   0.37475    0.80631   1.00
H2       0.03196    0.64963    0.84932   1.00
H2       0.07741    0.72132    0.86489   1.00
H2       0.00304    0.70830    0.85267   1.00
H2       0.17941    0.73956    0.84511   1.00
H2       0.13437    0.67690    0.82676   1.00
H2       0.19043    0.76213    0.81947   1.00
H2       0.12193    0.80885    0.75800   1.00
H2       0.04315    0.73878    0.76500   1.00
H2       0.05798    0.82259    0.76844   1.00
H2       0.19049    0.87419    0.80990   1.00
H2       0.20572    0.88685    0.78372   1.00
H2       0.14349    0.90148    0.79495   1.00
H2       -0.07897   0.71930    0.83431   1.00
H2       -0.09569   0.77849    0.82179   1.00
H2       -0.09742   0.71122    0.80822   1.00
H2       0.01065    0.88161    0.82999   1.00
H2       0.03157    0.83271    0.84617   1.00
H2       0.09056    0.88749    0.82783   1.00
C4       0.49281    0.46700    0.83224   1.00
C4       0.46458    0.48918    0.81660   1.00
C3       0.54155    0.51173    0.84655   1.00
C3       0.48678    0.55880    0.81256   1.00
C3       0.47231    0.39639    0.83360   1.00
C3       0.41101    0.43947    0.80424   1.00
C2       0.55000    0.41865    0.86278   1.00
C2       0.40596    0.52996    0.78440   1.00
C3       0.56967    0.48833    0.86133   1.00
C3       0.45786    0.57865    0.79703   1.00
C3       0.50033    0.37362    0.84886   1.00
C3       0.38459    0.46064    0.78812   1.00
H1       0.55788    0.56259    0.84670   1.00
H1       0.52488    0.59716    0.82070   1.00
C5       0.42375    0.34896    0.81977   1.00
C5       0.38447    0.36896    0.80789   1.00
H1       0.60509    0.52313    0.87118   1.00
H1       0.47554    0.62972    0.79492   1.00
H1       0.48374    0.32257    0.85001   1.00
H1       0.34935    0.42461    0.77859   1.00
O3       0.41264    0.28337    0.81893   1.00
O3       0.32441    0.32047    0.79893   1.00
Si1      0.45477    0.26416    0.80265   1.00
Si1      0.25213    0.30120    0.80974   1.00
C6       0.42770    0.18110    0.81170   1.00
C6       0.42090    0.26203    0.77841   1.00
C6       0.54408    0.31672    0.80468   1.00
C6       0.25414    0.34565    0.83201   1.00
C6       0.20830    0.31756    0.79060   1.00
C6       0.20854    0.21271    0.81433   1.00
C6       0.43178    0.17403    0.83524   1.00
H2       0.37332    0.15446    0.80813   1.00
C6       0.45588    0.13644    0.80223   1.00
H2       0.36936    0.25097    0.78207   1.00
C6       0.45339    0.32921    0.76561   1.00
C6       0.41184    0.20500    0.76320   1.00
H2       0.55221    0.31655    0.82101   1.00
C6       0.58934    0.29060    0.79451   1.00
C6       0.57857    0.39365    0.79811   1.00
C6       0.29627    0.34339    0.85048   1.00
C6       0.26963    0.42112    0.83041   1.00
H2       0.20104    0.31774    0.83696   1.00
H2       0.23604    0.37301    0.78928   1.00
C6       0.21060    0.29047    0.76892   1.00
C6       0.13217    0.29607    0.79475   1.00
H2       0.18544    0.19032    0.79973   1.00
C6       0.25355    0.18069    0.81973   1.00
C6       0.14875    0.18333    0.83008   1.00
H2       0.40372    0.19429    0.84338   1.00
H2       0.48460    0.20119    0.84054   1.00
H2       0.40932    0.12058    0.83972   1.00
H2       0.41647    0.08259    0.80257   1.00
H2       0.47198    0.14959    0.78656   1.00
H2       0.49928    0.14061    0.81069   1.00
H2       0.41958    0.32520    0.75318   1.00
H2       0.46188    0.37306    0.77461   1.00
H2       0.50180    0.33971    0.75893   1.00
H2       0.38062    0.15428    0.76971   1.00
H2       0.38565    0.20610    0.74938   1.00
H2       0.46113    0.21135    0.75872   1.00
H2       0.57597    0.27810    0.77856   1.00
H2       0.64371    0.32845    0.79530   1.00
H2       0.58421    0.24596    0.80227   1.00
H2       0.59095    0.40052    0.78197   1.00
H2       0.54744    0.41661    0.80111   1.00
H2       0.62639    0.42379    0.80639   1.00
H2       0.35015    0.38130    0.84910   1.00
H2       0.27813    0.35438    0.86457   1.00
H2       0.29183    0.29355    0.85230   1.00
H2       0.25958    0.43808    0.84488   1.00
H2       0.32263    0.45640    0.82660   1.00
H2       0.23743    0.42687    0.81921   1.00
H2       0.19235    0.31284    0.75757   1.00
H2       0.26261    0.30451    0.76462   1.00
H2       0.17893    0.23514    0.76790   1.00
H2       0.12592    0.31467    0.80941   1.00
H2       0.11363    0.31761    0.78322   1.00
H2       0.09930    0.24071    0.79435   1.00
H2       0.28173    0.20112    0.83382   1.00
H2       0.22306    0.12529    0.82117   1.00
H2       0.29033    0.19130    0.80773   1.00
H2       0.11944    0.12764    0.82928   1.00
H2       0.16776    0.19727    0.84559   1.00
H2       0.11306    0.20141    0.82720   1.00
C4       0.36458    0.20849    0.33586   1.00
C4       0.31245    0.18553    0.35099   1.00
C3       0.39183    0.27241    0.32588   1.00
C3       0.27808    0.22134    0.35630   1.00
C3       0.39057    0.16509    0.33005   1.00
C3       0.29325    0.12347    0.36154   1.00
C2       0.46752    0.24976    0.30471   1.00
C2       0.20649    0.13495    0.38143   1.00
C3       0.44160    0.29236    0.31065   1.00
C3       0.22700    0.19711    0.37124   1.00
C3       0.44169    0.18669    0.31492   1.00
C3       0.23965    0.09847    0.37592   1.00
H1       0.37649    0.30645    0.32942   1.00
H1       0.28883    0.26585    0.34940   1.00
C5       0.36553    0.10052    0.33944   1.00
C5       0.32713    0.08633    0.35759   1.00
H1       0.45904    0.33897    0.30386   1.00
H1       0.20432    0.22545    0.37457   1.00
H1       0.46120    0.15583    0.31131   1.00
H1       0.22355    0.05184    0.38240   1.00
O3       0.38214    0.05437    0.33153   1.00
O3       0.31908    0.03416    0.37026   1.00
Si1      0.33117    -0.00278   0.31524   1.00
Si1      0.36679    0.05299    0.39047   1.00
C6       0.38558    -0.03469   0.30870   1.00
C6       0.25921    -0.06386   0.32874   1.00
C6       0.31286    0.03272    0.29397   1.00
C6       0.42464    0.13987    0.39564   1.00
C6       0.30701    0.01811    0.41021   1.00
C6       0.41053    0.00704    0.38902   1.00
C6       0.46130    0.02018    0.30378   1.00
H2       0.38790    -0.05858   0.32283   1.00
C6       0.36469    -0.09097   0.29194   1.00
H2       0.27973    -0.05891   0.34402   1.00
C6       0.19671    -0.05265   0.33094   1.00
C6       0.22792    -0.14089   0.32304   1.00
H2       0.36349    0.07368    0.28960   1.00
C6       0.28273    -0.01375   0.27478   1.00
C6       0.26711    0.06632    0.29663   1.00
C6       0.47865    0.18277    0.37907   1.00
C6       0.39714    0.18628    0.40406   1.00
H2       0.45402    0.13671    0.40830   1.00
H2       0.28448    0.05086    0.41083   1.00
C6       0.24581    -0.05568   0.40663   1.00
C6       0.33480    0.01873    0.43197   1.00
H2       0.37329    -0.04396   0.39429   1.00
C6       0.43115    -0.00380   0.36737   1.00
C6       0.47515    0.03079    0.40267   1.00
H2       0.48464    0.05642    0.31623   1.00
H2       0.46446    0.04893    0.29011   1.00
H2       0.49265    -0.00347   0.30142   1.00
H2       0.38505    -0.12440   0.29570   1.00
H2       0.30979    -0.12291   0.29030   1.00
H2       0.38522    -0.06925   0.27705   1.00
H2       0.16252    -0.08494   0.34296   1.00
H2       0.21209    -0.00037   0.33506   1.00
H2       0.16718    -0.06548   0.31692   1.00
H2       0.26592    -0.15698   0.32398   1.00
H2       0.18706    -0.17371   0.33351   1.00
H2       0.20635    -0.15101   0.30777   1.00
H2       0.23737    -0.06207   0.27862   1.00
H2       0.26857    0.01071    0.26292   1.00
H2       0.32002    -0.02411   0.26777   1.00
H2       0.21290    0.02915    0.29518   1.00
H2       0.27388    0.09152    0.31111   1.00
H2       0.27943    0.10498    0.28492   1.00
H2       0.45770    0.20178    0.36760   1.00
H2       0.52218    0.22725    0.38590   1.00
H2       0.49854    0.15370    0.37146   1.00
H2       0.43930    0.23531    0.40916   1.00
H2       0.36934    0.19737    0.39265   1.00
H2       0.36395    0.16367    0.41717   1.00
H2       0.20597    -0.06822   0.41797   1.00
H2       0.22238    -0.06027   0.39179   1.00
H2       0.26138    -0.09406   0.40761   1.00
H2       0.37665    0.06910    0.43605   1.00
H2       0.29465    0.00517    0.44328   1.00
H2       0.35247    -0.01802   0.43330   1.00
H2       0.46673    0.04426    0.36006   1.00
H2       0.45435    -0.03604   0.36769   1.00
H2       0.38612    -0.02940   0.35785   1.00
H2       0.49125    -0.00741   0.40276   1.00
H2       0.51805    0.07860    0.39720   1.00
H2       0.46525    0.03798    0.41839   1.00
C4       0.84000    0.63366    0.33646   1.00
C4       0.87000    0.68563    0.35161   1.00
C3       0.84517    0.57370    0.33651   1.00
C3       0.91324    0.68585    0.36725   1.00
C3       0.80356    0.64207    0.32010   1.00
C3       0.85625    0.74066    0.35131   1.00
C2       0.78079    0.53258    0.30472   1.00
C2       0.92993    0.79341    0.38142   1.00
C3       0.81673    0.52472    0.32103   1.00
C3       0.94188    0.73790    0.38186   1.00
C3       0.77416    0.59144    0.30483   1.00
C3       0.88796    0.79409    0.36565   1.00
H1       0.86953    0.56375    0.34784   1.00
H1       0.92554    0.64844    0.36841   1.00
C5       0.79649    0.70084    0.31914   1.00
C5       0.81149    0.74247    0.33662   1.00
H1       0.82252    0.48261    0.32179   1.00
H1       0.97229    0.73508    0.39292   1.00
H1       0.74655    0.59725    0.29349   1.00
H1       0.88109    0.83528    0.36445   1.00
O3       0.77148    0.71432    0.30177   1.00
O3       0.78696    0.78719    0.33845   1.00
Si1      0.82421    0.76389    0.28433   1.00
Si1      0.71958    0.76522    0.35240   1.00
C6       0.76241    0.74995    0.26575   1.00
C6       0.86365    0.84810    0.29364   1.00
C6       0.88080    0.73693    0.27575   1.00
C6       0.68288    0.68618    0.36526   1.00
C6       0.74818    0.83168    0.37017   1.00
C6       0.65830    0.76896    0.33684   1.00
C6       0.70689    0.67364    0.26191   1.00
H2       0.73519    0.77321    0.27271   1.00
C6       0.78393    0.78290    0.24412   1.00
H2       0.82598    0.84525    0.30452   1.00
C6       0.93171    0.87568    0.30582   1.00
C6       0.87616    0.90690    0.27868   1.00
H2       0.84644    0.68255    0.27308   1.00
C6       0.91845    0.76707    0.25515   1.00
C6       0.93842    0.74255    0.29028   1.00
C6       0.65963    0.62017    0.35239   1.00
C6       0.71900    0.67861    0.38455   1.00
H2       0.63590    0.68170    0.37128   1.00
H2       0.78312    0.82419    0.37977   1.00
C6       0.79129    0.90573    0.36152   1.00
C6       0.69377    0.83226    0.38465   1.00
H2       0.67380    0.82301    0.33661   1.00
C6       0.65738    0.74925    0.31414   1.00
C6       0.58219    0.73048    0.34404   1.00
H2       0.68058    0.64842    0.27591   1.00
H2       0.72945    0.64489    0.25552   1.00
H2       0.66778    0.66978    0.25139   1.00
H2       0.74603    0.79506    0.23830   1.00
H2       0.83296    0.82978    0.24406   1.00
H2       0.78688    0.74841    0.23311   1.00
H2       0.94284    0.92166    0.31429   1.00
H2       0.92916    0.83902    0.31697   1.00
H2       0.97474    0.88891    0.29572   1.00
H2       0.82887    0.89735    0.27142   1.00
H2       0.89600    0.95559    0.28663   1.00
H2       0.91311    0.91343    0.26698   1.00
H2       0.94518    0.82274    0.25531   1.00
H2       0.95586    0.75128    0.25176   1.00
H2       0.88309    0.74876    0.24247   1.00
H2       0.98465    0.79236    0.28931   1.00
H2       0.92352    0.73412    0.30610   1.00
H2       0.95251    0.70442    0.28616   1.00
H2       0.70190    0.61151    0.34920   1.00
H2       0.62121    0.57538    0.36060   1.00
H2       0.63685    0.62184    0.33802   1.00
H2       0.68564    0.63057    0.39235   1.00
H2       0.76568    0.67837    0.38084   1.00
H2       0.73125    0.71899    0.39558   1.00
H2       0.81623    0.94227    0.37385   1.00
H2       0.83168    0.91020    0.35146   1.00
H2       0.75992    0.92140    0.35310   1.00
H2       0.66240    0.78284    0.39190   1.00
H2       0.71873    0.86955    0.39681   1.00
H2       0.66036    0.84609    0.37655   1.00
H2       0.64494    0.69639    0.31235   1.00
H2       0.62082    0.75676    0.30532   1.00
H2       0.70720    0.78152    0.30743   1.00
H2       0.55136    0.74514    0.33485   1.00
H2       0.55977    0.67525    0.34276   1.00
H2       0.57723    0.74255    0.35973   1.00
C4       0.79344    0.15972    0.33644   1.00
C4       0.81548    0.12977    0.35158   1.00
C3       0.72711    0.15165    0.33593   1.00
C3       0.77165    0.08381    0.36661   1.00
C3       0.83953    0.19921    0.32066   1.00
C3       0.88516    0.14641    0.35192   1.00
C2       0.75168    0.21913    0.30473   1.00
C2       0.86361    0.07015    0.38141   1.00
C3       0.70663    0.18018    0.32046   1.00
C3       0.79516    0.05530    0.38124   1.00
C3       0.81831    0.22864    0.30540   1.00
C3       0.90713    0.11486    0.36624   1.00
H1       0.69180    0.12499    0.34683   1.00
H1       0.72127    0.06936    0.36730   1.00
C5       0.90662    0.20929    0.32028   1.00
C5       0.93243    0.19390    0.33788   1.00
H1       0.65785    0.17222    0.32080   1.00
H1       0.76129    0.02283    0.39185   1.00
H1       0.85253    0.25841    0.29450   1.00
H1       0.95608    0.12394    0.36546   1.00
O3       0.94689    0.23744    0.30338   1.00
O3       1.00183    0.22085    0.34040   1.00
Si1      0.94828    0.18786    0.28563   1.00
Si1      1.04336    0.28709    0.35510   1.00
C6       0.99652    0.25247    0.26780   1.00
C6       0.99478    0.15041    0.29507   1.00
C6       0.86659    0.12975    0.27605   1.00
C6       0.99678    0.31945    0.36782   1.00
C6       1.08127    0.25894    0.37299   1.00
C6       1.10881    0.35165    0.34043   1.00
C6       0.97311    0.30609    0.26411   1.00
H2       1.04600    0.28058    0.27532   1.00
C6       1.01186    0.23448    0.24616   1.00
H2       1.02727    0.18754    0.30643   1.00
C6       0.95514    0.08076    0.30652   1.00
C6       1.04451    0.14207    0.28041   1.00
H2       0.84483    0.16263    0.27341   1.00
C6       0.86320    0.09502    0.25519   1.00
C6       0.81440    0.06947    0.28982   1.00
C6       0.95354    0.34160    0.35474   1.00
C6       0.95150    0.28000    0.38653   1.00
H2       1.03728    0.36657    0.37444   1.00
H2       1.03837    0.22178    0.38204   1.00
C6       1.11599    0.21932    0.36435   1.00
C6       1.13313    0.31291    0.38822   1.00
H2       1.14898    0.33836    0.34042   1.00
C6       1.09232    0.35426    0.31760   1.00
C6       1.14280    0.42682    0.34836   1.00
H2       0.97128    0.33021    0.27826   1.00
H2       0.92251    0.28242    0.25719   1.00
H2       1.00857    0.34707    0.25411   1.00
H2       1.06194    0.27444    0.24096   1.00
H2       1.01199    0.18656    0.24580   1.00
H2       0.97506    0.23111    0.23484   1.00
H2       0.99026    0.07056    0.31519   1.00
H2       0.91880    0.08039    0.31739   1.00
H2       0.92795    0.03855    0.29593   1.00
H2       1.08172    0.19077    0.27374   1.00
H2       1.07397    0.12316    0.28848   1.00
H2       1.01657    0.10594    0.26826   1.00
H2       0.89403    0.07028    0.25543   1.00
H2       0.81101    0.05644    0.25116   1.00
H2       0.88050    0.13174    0.24286   1.00
H2       0.82037    0.02466    0.28861   1.00
H2       0.81839    0.08251    0.30576   1.00
H2       0.76219    0.05377    0.28520   1.00
H2       0.90388    0.29837    0.35091   1.00
H2       0.94422    0.37785    0.36311   1.00
H2       0.97920    0.36659    0.34071   1.00
H2       0.93396    0.31096    0.39440   1.00
H2       0.90620    0.23270    0.38217   1.00
H2       0.97950    0.26810    0.39771   1.00
H2       1.12752    0.19412    0.37662   1.00
H2       1.08240    0.17939    0.35378   1.00
H2       1.16360    0.25305    0.35650   1.00
H2       1.11232    0.34185    0.39550   1.00
H2       1.14544    0.28776    0.40032   1.00
H2       1.18083    0.34862    0.38070   1.00
H2       1.05063    0.36471    0.31555   1.00
H2       1.13671    0.39298    0.30935   1.00
H2       1.07756    0.30562    0.31046   1.00
H2       1.18896    0.46005    0.33973   1.00
H2       1.10835    0.44730    0.34694   1.00
H2       1.15807    0.43067    0.36421   1.00
C4       0.79512    0.64024    0.83447   1.00
C4       0.81674    0.69058    0.85012   1.00
C3       0.73974    0.62436    0.82121   1.00
C3       0.78140    0.72557    0.85525   1.00
C3       0.82980    0.60261    0.83201   1.00
C3       0.87709    0.70748    0.86133   1.00
C2       0.75241    0.53537    0.80388   1.00
C2       0.86288    0.79062    0.88226   1.00
C3       0.71869    0.57312    0.80640   1.00
C3       0.80415    0.77468    0.87075   1.00
C3       0.80858    0.55200    0.81674   1.00
C3       0.89751    0.75499    0.87747   1.00
H1       0.71322    0.64972    0.82187   1.00
H1       0.73786    0.71611    0.84797   1.00
C5       0.88561    0.61598    0.84477   1.00
C5       0.91642    0.67654    0.85654   1.00
H1       0.67798    0.56355    0.79734   1.00
H1       0.77687    0.79878    0.87368   1.00
H1       0.83513    0.52675    0.81478   1.00
H1       0.93830    0.76330    0.88619   1.00
O3       0.91148    0.57234    0.84465   1.00
O3       0.98132    0.70155    0.86431   1.00
Si1      0.88360    0.50997    0.86103   1.00
Si1      1.04548    0.76445    0.85264   1.00
C6       0.92543    0.46879    0.85068   1.00
C6       0.91773    0.54601    0.88489   1.00
C6       0.79416    0.45640    0.86048   1.00
C6       1.02836    0.79960    0.83101   1.00
C6       1.08250    0.82709    0.87156   1.00
C6       1.10359    0.73693    0.84651   1.00
C6       0.91906    0.45772    0.82712   1.00
H2       0.97901    0.50604    0.85340   1.00
C6       0.91437    0.39993    0.85979   1.00
H2       0.96361    0.59324    0.88064   1.00
C6       0.87596    0.56778    0.89882   1.00
C6       0.94257    0.50774    0.89924   1.00
H2       0.78406    0.44691    0.84425   1.00
C6       0.76412    0.38455    0.87069   1.00
C6       0.74704    0.48412    0.86834   1.00
C6       0.98943    0.75086    0.81292   1.00
C6       0.99680    0.84688    0.83372   1.00
H2       1.07949    0.83415    0.82523   1.00
H2       1.04541    0.84383    0.87384   1.00
C6       1.09154    0.80199    0.89286   1.00
C6       1.15180    0.89249    0.86646   1.00
H2       1.13168    0.74362    0.86059   1.00
C6       1.07216    0.65997    0.84110   1.00
C6       1.15865    0.77734    0.82988   1.00
H2       0.93632    0.50568    0.81902   1.00
H2       0.86634    0.42260    0.82266   1.00
H2       0.95053    0.43679    0.82176   1.00
H2       0.96119    0.39742    0.85840   1.00
H2       0.90051    0.39378    0.87575   1.00
H2       0.87474    0.35551    0.85179   1.00
H2       0.90818    0.60188    0.91087   1.00
H2       0.85609    0.59559    0.89049   1.00
H2       0.83347    0.52360    0.90606   1.00
H2       0.98042    0.49875    0.89181   1.00
H2       0.96731    0.53784    0.91281   1.00
H2       0.89993    0.45900    0.90423   1.00
H2       0.78174    0.38898    0.88633   1.00
H2       0.70831    0.35692    0.87087   1.00
H2       0.77802    0.35198    0.86231   1.00
H2       0.73799    0.47673    0.88465   1.00
H2       0.76726    0.53789    0.86537   1.00
H2       0.69725    0.45696    0.86090   1.00
H2       0.93445    0.72388    0.81526   1.00
H2       0.99936    0.77986    0.79883   1.00
H2       1.00519    0.71324    0.81041   1.00
H2       0.99829    0.87206    0.81941   1.00
H2       0.94370    0.81868    0.83845   1.00
H2       1.02498    0.88750    0.84469   1.00
H2       1.10376    0.84140    0.90432   1.00
H2       1.04464    0.75679    0.89780   1.00
H2       1.13240    0.78972    0.89288   1.00
H2       1.14962    0.91488    0.85202   1.00
H2       1.16452    0.93153    0.87809   1.00
H2       1.19357    0.88152    0.86585   1.00
H2       1.04033    0.64603    0.82756   1.00
H2       1.11155    0.64629    0.83868   1.00
H2       1.04059    0.62880    0.85355   1.00
H2       1.19756    0.76219    0.82970   1.00
H2       1.13596    0.76794    0.81476   1.00
H2       1.18512    0.83212    0.83268   1.00
C4       0.36192    0.16336    0.83530   1.00
C4       0.31015    0.13321    0.85050   1.00
C3       0.36067    0.20475    0.81932   1.00
C3       0.24903    0.13629    0.85019   1.00
C3       0.41779    0.15091    0.83578   1.00
C3       0.31945    0.09803    0.86706   1.00
C2       0.46683    0.21966    0.80456   1.00
C2       0.20718    0.06962    0.88158   1.00
C3       0.41144    0.23182    0.80430   1.00
C3       0.19923    0.10593    0.86539   1.00
C3       0.46917    0.17974    0.82070   1.00
C3       0.26735    0.06531    0.88175   1.00
H1       0.32296    0.21663    0.81816   1.00
H1       0.23869    0.16030    0.83885   1.00
C5       0.42214    0.10999    0.85135   1.00
C5       0.38032    0.09512    0.86879   1.00
H1       0.40759    0.26098    0.79303   1.00
H1       0.15632    0.11030    0.86448   1.00
H1       0.50992    0.17194    0.82156   1.00
H1       0.27286    0.03667    0.89277   1.00
O3       0.46940    0.08880    0.84989   1.00
O3       0.39628    0.07351    0.88650   1.00
Si1      0.44768    0.01488    0.83975   1.00
Si1      0.43442    0.12858    0.90469   1.00
C6       0.53004    0.02465    0.83909   1.00
C6       0.39486    -0.04843   0.85728   1.00
C6       0.41336    0.00491    0.81511   1.00
C6       0.45088    0.21289    0.90116   1.00
C6       0.37908    0.09153    0.92538   1.00
C6       0.51078    0.12895    0.91011   1.00
C6       0.58800    0.09413    0.83044   1.00
H2       0.54169    0.02532    0.85519   1.00
C6       0.54255    -0.03144   0.82936   1.00
H2       0.41100    -0.02086   0.87164   1.00
C6       0.31608    -0.07755   0.85605   1.00
C6       0.40360    -0.11231   0.86001   1.00
H2       0.45006    0.05271    0.80781   1.00
C6       0.41053    -0.05352   0.80167   1.00
C6       0.34121    -0.00212   0.81222   1.00
C6       0.49414    0.25344    0.88233   1.00
C6       0.39080    0.22822    0.90273   1.00
H2       0.48254    0.23919    0.91430   1.00
H2       0.33473    0.09602    0.92140   1.00
C6       0.35097    0.01349    0.92876   1.00
C6       0.40400    0.12655    0.94653   1.00
H2       0.49479    0.08450    0.91985   1.00
C6       0.54717    0.11718    0.89178   1.00
C6       0.56764    0.19108    0.92213   1.00
H2       0.59080    0.13749    0.83857   1.00
H2       0.57980    0.09966    0.81437   1.00
H2       0.63796    0.09817    0.83199   1.00
H2       0.58345    -0.03389   0.83744   1.00
H2       0.49775    -0.08205   0.82985   1.00
H2       0.55863    -0.02039   0.81354   1.00
H2       0.29109    -0.10464   0.87001   1.00
H2       0.30335    -0.03744   0.85426   1.00
H2       0.29358    -0.11353   0.84352   1.00
H2       0.45598    -0.09758   0.86397   1.00
H2       0.37171    -0.14492   0.87236   1.00
H2       0.38913    -0.14322   0.84623   1.00
H2       0.38415    -0.10253   0.80950   1.00
H2       0.38425    -0.05894   0.78726   1.00
H2       0.46133    -0.04287   0.79750   1.00
H2       0.30005    -0.05493   0.81352   1.00
H2       0.33049    0.02734    0.82302   1.00
H2       0.33740    0.01568    0.79711   1.00
H2       0.46297    0.24146    0.86871   1.00
H2       0.51729    0.30832    0.88487   1.00
H2       0.53556    0.24344    0.87925   1.00
H2       0.41036    0.28324    0.90307   1.00
H2       0.35616    0.20807    0.88988   1.00
H2       0.36123    0.20774    0.91660   1.00
H2       0.30868    -0.00709   0.93958   1.00
H2       0.33115    -0.01524   0.91468   1.00
H2       0.38998    0.00326    0.93466   1.00
H2       0.42277    0.18124    0.94576   1.00
H2       0.36193    0.10523    0.95744   1.00
H2       0.44440    0.11871    0.95264   1.00
H2       0.56353    0.15738    0.88043   1.00
H2       0.59174    0.11414    0.89660   1.00
H2       0.51261    0.06911    0.88447   1.00
H2       0.60743    0.18050    0.92720   1.00
H2       0.59197    0.23700    0.91275   1.00
H2       0.54741    0.20225    0.93568   1.00
C4       0.83632    0.19880    0.83547   1.00
C4       0.86640    0.17700    0.85065   1.00
C3       0.78781    0.15412    0.82110   1.00
C3       0.85573    0.10972    0.85180   1.00
C3       0.85626    0.26929    0.83425   1.00
C3       0.90953    0.22459    0.86562   1.00
C2       0.78041    0.24741    0.80461   1.00
C2       0.93031    0.13730    0.88153   1.00
C3       0.76089    0.17776    0.80603   1.00
C3       0.88628    0.09021    0.86693   1.00
C3       0.82755    0.29193    0.81917   1.00
C3       0.94213    0.20467    0.88020   1.00
H1       0.77044    0.10305    0.82122   1.00
H1       0.82580    0.07303    0.84162   1.00
C5       0.90452    0.31667    0.84816   1.00
C5       0.92044    0.29191    0.86589   1.00
H1       0.72635    0.14315    0.79596   1.00
H1       0.87625    0.04070    0.86712   1.00
H1       0.84090    0.34232    0.81883   1.00
H1       0.97624    0.24047    0.89001   1.00
O3       0.93203    0.38560    0.84489   1.00
O3       0.95047    0.33427    0.88237   1.00
Si1      1.00397    0.42806    0.83262   1.00
Si1      0.90275    0.32909    0.90160   1.00
C6       1.00340    0.50549    0.83049   1.00
C6       1.06948    0.43664    0.84893   1.00
C6       1.00280    0.39346    0.80852   1.00
C6       0.81509    0.26718    0.90078   1.00
C6       0.94134    0.31166    0.92206   1.00
C6       0.91320    0.41082    0.90531   1.00
C6       0.93474    0.49939    0.82311   1.00
H2       1.00902    0.52218    0.84626   1.00
C6       1.06087    0.56760    0.81851   1.00
H2       1.04684    0.43258    0.86385   1.00
C6       1.09022    0.38031    0.84840   1.00
C6       1.13847    0.50588    0.84913   1.00
H2       0.95477    0.38550    0.80217   1.00
C6       1.05973    0.44041    0.79310   1.00
C6       1.00063    0.32312    0.80699   1.00
C6       0.77194    0.26923    0.88256   1.00
C6       0.79223    0.19021    0.90422   1.00
H2       0.79527    0.28023    0.91409   1.00
H2       0.93007    0.25956    0.91925   1.00
C6       1.02097    0.35545    0.92322   1.00
C6       0.91400    0.31206    0.94381   1.00
H2       0.96095    0.43823    0.91374   1.00
C6       0.92434    0.45429    0.88585   1.00
C6       0.85844    0.41686    0.91824   1.00
H2       0.89201    0.46471    0.83270   1.00
H2       0.92305    0.48061    0.80752   1.00
H2       0.93698    0.54872    0.82369   1.00
H2       1.07083    0.61545    0.82554   1.00
H2       1.10880    0.56750    0.81815   1.00
H2       1.04637    0.56932    0.80281   1.00
H2       1.11994    0.38349    0.86185   1.00
H2       1.04601    0.32917    0.84835   1.00
H2       1.12149    0.38605    0.83513   1.00
H2       1.13051    0.54861    0.85244   1.00
H2       1.17267    0.50642    0.86095   1.00
H2       1.16499    0.51498    0.83463   1.00
H2       1.11044    0.46052    0.79970   1.00
H2       1.05787    0.41326    0.77916   1.00
H2       1.05338    0.48271    0.78821   1.00
H2       1.05155    0.32915    0.80728   1.00
H2       0.97168    0.28792    0.81903   1.00
H2       0.97685    0.29789    0.79270   1.00
H2       0.77663    0.24326    0.86928   1.00
H2       0.71784    0.24352    0.88655   1.00
H2       0.78648    0.32113    0.87821   1.00
H2       0.73690    0.15992    0.90612   1.00
H2       0.80532    0.16840    0.89148   1.00
H2       0.81443    0.18242    0.91793   1.00
H2       1.04081    0.33340    0.93417   1.00
H2       1.04447    0.35679    0.90861   1.00
H2       1.03821    0.40784    0.92785   1.00
H2       0.85857    0.28089    0.94459   1.00
H2       0.93467    0.29095    0.95481   1.00
H2       0.92896    0.36376    0.94870   1.00
H2       0.88062    0.43069    0.87565   1.00
H2       0.93437    0.50552    0.88954   1.00
H2       0.96846    0.46016    0.87760   1.00
H2       0.87588    0.47012    0.92202   1.00
H2       0.81026    0.39697    0.91004   1.00
H2       0.84841    0.38946    0.93257   1.00
C4       -0.02863   0.45904    0.33158   1.00
C4       0.02187    0.48145    0.31596   1.00
C3       -0.07322   0.38936    0.33638   1.00
C3       0.02865    0.43648    0.30240   1.00
C3       -0.03611   0.50859    0.34293   1.00
C3       0.06862    0.55267    0.31365   1.00
C2       -0.13167   0.41774    0.36270   1.00
C2       0.12434    0.53087    0.28448   1.00
C3       -0.12358   0.36921    0.35143   1.00
C3       0.07887    0.46043    0.28720   1.00
C3       -0.08639   0.48727    0.35831   1.00
C3       0.11694    0.57592    0.29770   1.00
H1       -0.07026   0.35121    0.32913   1.00
H1       -0.00295   0.38504    0.30307   1.00
C5       0.00686    0.57911    0.33890   1.00
C5       0.06658    0.60038    0.32713   1.00
H1       -0.15469   0.31806    0.35413   1.00
H1       0.08175    0.42551    0.27795   1.00
H1       -0.08991   0.52344    0.36670   1.00
H1       0.14714    0.62723    0.29543   1.00
O3       -0.00776   0.62592    0.34741   1.00
O3       0.11910    0.66732    0.32776   1.00
Si1      -0.05339   0.65099    0.33480   1.00
Si1      0.18573    0.68648    0.34176   1.00
C6       -0.06336   0.69766    0.35464   1.00
C6       -0.00161   0.70537    0.31526   1.00
C6       -0.13290   0.58300    0.32681   1.00
C6       0.18877    0.61982    0.35480   1.00
C6       0.25343    0.72398    0.32438   1.00
C6       0.19473    0.74994    0.35899   1.00
C6       -0.08512   0.66071    0.37570   1.00
H2       -0.01129   0.73962    0.35677   1.00
C6       -0.10814   0.73213    0.35174   1.00
H2       0.04947    0.72420    0.32140   1.00
C6       -0.00216   0.67321    0.29421   1.00
C6       -0.00627   0.77045    0.31021   1.00
H2       -0.15196   0.55252    0.34062   1.00
C6       -0.18865   0.60094    0.32031   1.00
C6       -0.13535   0.53338    0.30973   1.00
C6       0.12933    0.57512    0.36974   1.00
C6       0.20408    0.56935    0.34273   1.00
H2       0.23373    0.64767    0.36438   1.00
H2       0.24637    0.68141    0.31492   1.00
C6       0.25251    0.77713    0.30938   1.00
C6       0.32747    0.75719    0.33308   1.00
H2       0.22008    0.79699    0.35016   1.00
C6       0.12741    0.74526    0.36666   1.00
C6       0.24010    0.76273    0.37824   1.00
H2       -0.04994   0.64391    0.38075   1.00
H2       -0.13625   0.61603    0.37502   1.00
H2       -0.08506   0.69479    0.38745   1.00
H2       -0.08670   0.77943    0.36049   1.00
H2       -0.11126   0.74479    0.33603   1.00
H2       -0.16027   0.69991    0.35718   1.00
H2       0.04166    0.70870    0.28506   1.00
H2       0.00133    0.62720    0.29573   1.00
H2       -0.04813   0.66096    0.28563   1.00
H2       0.00358    0.80244    0.32358   1.00
H2       0.03197    0.80240    0.29895   1.00
H2       -0.05630   0.75678    0.30406   1.00
H2       -0.16927   0.64063    0.30869   1.00
H2       -0.23433   0.55660    0.31427   1.00
H2       -0.20634   0.61781    0.33318   1.00
H2       -0.13665   0.55211    0.29457   1.00
H2       -0.09249   0.52466    0.31009   1.00
H2       -0.18141   0.48351    0.31135   1.00
H2       0.08554    0.53460    0.36185   1.00
H2       0.14585    0.55058    0.38088   1.00
H2       0.11225    0.60512    0.37820   1.00
H2       0.21379    0.53756    0.35315   1.00
H2       0.16163    0.53494    0.33313   1.00
H2       0.24945    0.59601    0.33327   1.00
H2       0.28927    0.78866    0.29712   1.00
H2       0.20253    0.75734    0.30226   1.00
H2       0.26544    0.82498    0.31693   1.00
H2       0.33350    0.72272    0.34333   1.00
H2       0.36433    0.76965    0.32079   1.00
H2       0.34138    0.80442    0.34120   1.00
H2       0.09584    0.69854    0.37517   1.00
H2       0.13750    0.78857    0.37630   1.00
H2       0.09775    0.74606    0.35384   1.00
H2       0.25011    0.80960    0.38596   1.00
H2       0.21526    0.72091    0.38911   1.00
H2       0.28957    0.76868    0.37435   1.00
C4       0.48769    1.02868    0.33156   1.00
C4       0.45962    0.97818    0.31595   1.00
C3       0.46315    1.07385    0.33619   1.00
C3       0.40848    0.97194    0.30221   1.00
C3       0.54414    1.03556    0.34310   1.00
C3       0.48344    0.93085    0.31382   1.00
C2       0.54940    1.13168    0.36270   1.00
C2       0.40656    0.87565    0.28448   1.00
C3       0.49336    1.12419    0.35124   1.00
C3       0.38220    0.92169    0.28703   1.00
C3       0.57309    1.08584    0.35848   1.00
C3       0.45839    0.88250    0.29787   1.00
H1       0.42246    1.07134    0.32880   1.00
H1       0.38913    1.00397    0.30275   1.00
C5       0.57113    0.99200    0.33925   1.00
C5       0.53253    0.93234    0.32746   1.00
H1       0.47374    1.15574    0.35381   1.00
H1       0.34486    0.91922    0.27764   1.00
H1       0.61234    1.08892    0.36701   1.00
H1       0.47908    0.85187    0.29574   1.00
O3       0.63212    1.00599    0.34795   1.00
O3       0.54621    0.87934    0.32825   1.00
Si1      0.70329    1.05101    0.33550   1.00
Si1      0.49782    0.81292    0.34222   1.00
C6       0.75914    1.06042    0.35551   1.00
C6       0.70581    0.99884    0.31607   1.00
C6       0.71592    1.13083    0.32739   1.00
C6       0.42814    0.81074    0.35501   1.00
C6       0.46751    0.74514    0.32486   1.00
C6       0.55136    0.80327    0.35965   1.00
C6       0.74370    1.08254    0.37648   1.00
H2       0.74840    1.00817    0.35772   1.00
C6       0.83853    1.10451    0.35281   1.00
H2       0.67296    0.94785    0.32220   1.00
C6       0.67499    0.99970    0.29491   1.00
C6       0.77532    1.00267    0.31125   1.00
H2       0.70440    1.15017    0.34113   1.00
C6       0.79001    1.18601    0.32104   1.00
C6       0.66956    1.13381    0.31014   1.00
C6       0.44309    0.87040    0.36989   1.00
C6       0.36294    0.79609    0.34275   1.00
H2       0.41033    0.76574    0.36463   1.00
H2       0.43256    0.75264    0.31526   1.00
C6       0.52169    0.74538    0.31005   1.00
C6       0.42578    0.67117    0.33357   1.00
H2       0.57289    0.77749    0.35095   1.00
C6       0.61422    0.87027    0.36741   1.00
C6       0.51789    0.75808    0.37888   1.00
H2       0.69147    1.04780    0.38141   1.00
H2       0.75074    1.13390    0.37572   1.00
H2       0.77718    1.08211    0.38835   1.00
H2       0.86373    1.08266    0.36169   1.00
H2       0.85470    1.10742    0.33715   1.00
H2       0.85879    1.15672    0.35822   1.00
H2       0.66646    0.95571    0.28582   1.00
H2       0.62571    0.99679    0.29626   1.00
H2       0.70931    1.04553    0.28636   1.00
H2       0.79683    0.99254    0.32473   1.00
H2       0.76894    0.96425    0.30005   1.00
H2       0.81224    1.05255    0.30514   1.00
H2       0.81030    1.16624    0.30953   1.00
H2       0.79206    1.23192    0.31491   1.00
H2       0.82421    1.20343    0.33400   1.00
H2       0.68991    1.13483    0.29505   1.00
H2       0.61777    1.09132    0.31041   1.00
H2       0.66628    1.18020    0.31166   1.00
H2       0.44709    0.91439    0.36192   1.00
H2       0.40177    0.85430    0.38092   1.00
H2       0.48984    0.88704    0.37848   1.00
H2       0.32127    0.78685    0.35304   1.00
H2       0.37170    0.83867    0.33309   1.00
H2       0.34407    0.75065    0.33331   1.00
H2       0.49651    0.70866    0.29778   1.00
H2       0.55249    0.79527    0.30294   1.00
H2       0.55602    0.73198    0.31775   1.00
H2       0.38517    0.66562    0.34368   1.00
H2       0.40144    0.63435    0.32126   1.00
H2       0.45851    0.65681    0.34183   1.00
H2       0.59929    0.90223    0.37580   1.00
H2       0.64683    0.85974    0.37719   1.00
H2       0.64520    0.89969    0.35464   1.00
H2       0.55419    0.74759    0.38675   1.00
H2       0.50100    0.78330    0.38964   1.00
H2       0.47415    0.70882    0.37493   1.00
C4       0.54100    0.51231    0.33156   1.00
C4       0.51857    0.54038    0.31595   1.00
C3       0.61071    0.53688    0.33619   1.00
C3       0.56347    0.59154    0.30222   1.00
C3       0.49143    0.45583    0.34309   1.00
C3       0.44742    0.51653    0.31381   1.00
C2       0.58229    0.45060    0.36270   1.00
C2       0.46910    0.59344    0.28448   1.00
C3       0.63084    0.50666    0.35125   1.00
C3       0.53950    0.61782    0.28704   1.00
C3       0.51275    0.42688    0.35847   1.00
C3       0.42412    0.54158    0.29786   1.00
H1       0.64889    0.57759    0.32881   1.00
H1       0.61485    0.61092    0.30277   1.00
C5       0.42088    0.42882    0.33924   1.00
C5       0.39982    0.46741    0.32745   1.00
H1       0.68200    0.52630    0.35383   1.00
H1       0.57437    0.65519    0.27766   1.00
H1       0.47659    0.38761    0.36700   1.00
H1       0.37279    0.52087    0.29573   1.00
O3       0.37389    0.36781    0.34792   1.00
O3       0.33312    0.45370    0.32823   1.00
Si1      0.34779    0.29666    0.33547   1.00
Si1      0.31503    0.50204    0.34220   1.00
C6       0.30134    0.24077    0.35547   1.00
C6       0.29311    0.29414    0.31603   1.00
C6       0.41502    0.28408    0.32736   1.00
C6       0.38249    0.57173    0.35500   1.00
C6       0.27757    0.53235    0.32484   1.00
C6       0.25183    0.44847    0.35962   1.00
C6       0.33888    0.25621    0.37644   1.00
H2       0.25980    0.25148    0.35767   1.00
C6       0.26608    0.16139    0.35277   1.00
H2       0.27494    0.32696    0.32216   1.00
C6       0.32482    0.32499    0.29487   1.00
C6       0.22746    0.22461    0.31121   1.00
H2       0.44586    0.29560    0.34111   1.00
C6       0.39615    0.21000    0.32101   1.00
C6       0.46437    0.33048    0.31012   1.00
C6       0.42721    0.55679    0.36989   1.00
C6       0.43305    0.63696    0.34275   1.00
H2       0.35528    0.58950    0.36462   1.00
H2       0.32002    0.56733    0.31525   1.00
C6       0.22366    0.47818    0.31002   1.00
C6       0.24528    0.57404    0.33355   1.00
H2       0.20454    0.42693    0.35091   1.00
C6       0.25600    0.38562    0.36738   1.00
C6       0.24006    0.48190    0.37885   1.00
H2       0.35632    0.30842    0.38138   1.00
H2       0.38320    0.24919    0.37569   1.00
H2       0.30495    0.22269    0.38831   1.00
H2       0.21901    0.13616    0.36164   1.00
H2       0.25284    0.14524    0.33710   1.00
H2       0.29804    0.14115    0.35817   1.00
H2       0.28935    0.33352    0.28578   1.00
H2       0.37116    0.37428    0.29624   1.00
H2       0.33636    0.29070    0.28633   1.00
H2       0.19581    0.20308    0.32468   1.00
H2       0.19543    0.23099    0.30000   1.00
H2       0.24045    0.18772    0.30509   1.00
H2       0.35610    0.18971    0.30950   1.00
H2       0.44003    0.20799    0.31488   1.00
H2       0.37937    0.17579    0.33396   1.00
H2       0.44507    0.31014    0.29503   1.00
H2       0.47364    0.38226    0.31039   1.00
H2       0.51404    0.33378    0.31164   1.00
H2       0.46722    0.55282    0.36192   1.00
H2       0.45241    0.59810    0.38092   1.00
H2       0.39710    0.51002    0.37847   1.00
H2       0.46545    0.67862    0.35304   1.00
H2       0.46689    0.62823    0.33309   1.00
H2       0.40648    0.65582    0.33330   1.00
H2       0.21213    0.50336    0.29775   1.00
H2       0.24278    0.44740    0.30291   1.00
H2       0.17592    0.44382    0.31771   1.00
H2       0.28032    0.61465    0.34367   1.00
H2       0.23280    0.59839    0.32124   1.00
H2       0.19819    0.54129    0.34181   1.00
H2       0.30288    0.40056    0.37577   1.00
H2       0.21285    0.35298    0.37715   1.00
H2       0.25448    0.35466    0.35460   1.00
H2       0.19327    0.44557    0.38671   1.00
H2       0.28216    0.49879    0.38962   1.00
H2       0.23453    0.52563    0.37491   1.00
C4       0.20123    0.35882    0.16572   1.00
C4       0.17859    0.30822    0.15013   1.00
C3       0.16427    0.35100    0.18388   1.00
C3       0.11399    0.24758    0.15029   1.00
C3       0.26376    0.42140    0.16303   1.00
C3       0.22257    0.31810    0.13339   1.00
C2       0.24879    0.46494    0.19606   1.00
C2       0.13592    0.20907    0.11780   1.00
C3       0.18715    0.40271    0.19858   1.00
C3       0.09346    0.19904    0.13467   1.00
C3       0.28660    0.47243    0.17822   1.00
C3       0.19975    0.26998    0.11738   1.00
H1       0.11976    0.30740    0.18698   1.00
H1       0.07977    0.23708    0.16169   1.00
C5       0.30320    0.43248    0.14523   1.00
C5       0.28881    0.37614    0.13260   1.00
H1       0.15802    0.39436    0.21134   1.00
H1       0.04641    0.15586    0.13568   1.00
H1       0.33247    0.51628    0.17634   1.00
H1       0.23008    0.27992    0.10490   1.00
O3       0.35709    0.49660    0.14113   1.00
O3       0.33674    0.38009    0.11884   1.00
Si1      0.34541    0.54881    0.12685   1.00
Si1      0.38270    0.34546    0.12469   1.00
C6       0.42634    0.62150    0.13070   1.00
C6       0.33593    0.51910    0.10168   1.00
C6       0.27955    0.56253    0.13561   1.00
C6       0.36677    0.30183    0.14807   1.00
C6       0.36618    0.28808    0.10468   1.00
C6       0.46889    0.41002    0.12317   1.00
C6       0.45122    0.63733    0.15327   1.00
H2       0.46019    0.60670    0.12334   1.00
C6       0.44466    0.69223    0.12119   1.00
H2       0.36307    0.49061    0.10206   1.00
C6       0.26255    0.46777    0.09384   1.00
C6       0.36997    0.57249    0.08421   1.00
H2       0.29155    0.57250    0.15175   1.00
C6       0.27769    0.62618    0.12710   1.00
C6       0.20339    0.50315    0.13429   1.00
C6       0.37219    0.34196    0.16794   1.00
C6       0.30173    0.22975    0.15047   1.00
H2       0.40869    0.29116    0.14892   1.00
H2       0.31340    0.24827    0.10716   1.00
C6       0.36776    0.31591    0.08282   1.00
C6       0.40920    0.25151    0.10384   1.00
H2       0.48051    0.41352    0.10700   1.00
C6       0.48532    0.48313    0.12937   1.00
C6       0.52337    0.39773    0.13400   1.00
H2       0.45080    0.59369    0.16048   1.00
H2       0.41893    0.65063    0.16223   1.00
H2       0.50363    0.67979    0.15419   1.00
H2       0.49879    0.72065    0.11724   1.00
H2       0.41590    0.68744    0.10750   1.00
H2       0.43592    0.72423    0.13176   1.00
H2       0.26485    0.44254    0.07996   1.00
H2       0.23357    0.42742    0.10476   1.00
H2       0.23414    0.49376    0.09036   1.00
H2       0.42460    0.60522    0.08674   1.00
H2       0.36481    0.54742    0.06960   1.00
H2       0.34646    0.60425    0.08272   1.00
H2       0.27750    0.62622    0.11054   1.00
H2       0.23264    0.62792    0.13225   1.00
H2       0.32093    0.67342    0.13245   1.00
H2       0.18024    0.50228    0.11968   1.00
H2       0.19727    0.45300    0.13651   1.00
H2       0.17285    0.50969    0.14598   1.00
H2       0.32534    0.34281    0.17098   1.00
H2       0.38128    0.31785    0.18101   1.00
H2       0.41410    0.39439    0.16738   1.00
H2       0.30407    0.20556    0.16458   1.00
H2       0.25507    0.23234    0.15102   1.00
H2       0.29698    0.19515    0.13826   1.00
H2       0.34574    0.27399    0.07188   1.00
H2       0.33758    0.34132    0.08196   1.00
H2       0.41956    0.35196    0.07789   1.00
H2       0.40930    0.22859    0.11838   1.00
H2       0.38776    0.21024    0.09267   1.00
H2       0.46191    0.28673    0.09944   1.00
H2       0.47328    0.48581    0.14524   1.00
H2       0.53897    0.52069    0.12687   1.00
H2       0.45562    0.49857    0.12017   1.00
H2       0.57494    0.43611    0.12939   1.00
H2       0.52037    0.40053    0.15048   1.00
H2       0.51729    0.34819    0.13013   1.00
C4       0.63361    0.83924    0.16351   1.00
C4       0.68548    0.86932    0.14833   1.00
C3       0.56942    0.83584    0.16204   1.00
C3       0.68082    0.90444    0.13111   1.00
C3       0.64647    0.81178    0.18136   1.00
C3       0.74556    0.86422    0.15028   1.00
C2       0.53271    0.78061    0.19532   1.00
C2       0.79328    0.93011    0.11854   1.00
C3       0.52049    0.80770    0.17755   1.00
C3       0.73293    0.93345    0.11652   1.00
C3       0.59594    0.78245    0.19666   1.00
C3       0.79872    0.89633    0.13587   1.00
H1       0.55625    0.85350    0.14963   1.00
H1       0.63964    0.91034    0.12871   1.00
C5       0.70960    0.81353    0.18377   1.00
C5       0.75262    0.82770    0.16666   1.00
H1       0.47517    0.80709    0.17571   1.00
H1       0.72651    0.95773    0.10428   1.00
H1       0.60514    0.76126    0.20912   1.00
H1       0.84319    0.89596    0.13817   1.00
O3       0.72628    0.79760    0.20228   1.00
O3       0.80331    0.81062    0.16671   1.00
Si1      0.77096    0.85818    0.21855   1.00
Si1      0.78963    0.74134    0.15504   1.00
C6       0.76337    0.80501    0.23914   1.00
C6       0.85544    0.90312    0.20945   1.00
C6       0.73451    0.90925    0.22431   1.00
C6       0.71140    0.69291    0.14210   1.00
C6       0.85717    0.77131    0.13761   1.00
C6       0.80086    0.69013    0.17298   1.00
C6       0.68966    0.74467    0.24359   1.00
H2       0.79196    0.78098    0.23377   1.00
C6       0.79434    0.83586    0.26046   1.00
H2       0.85793    0.86473    0.20006   1.00
C6       0.87631    0.96585    0.19524   1.00
C6       0.91531    0.92716    0.22502   1.00
H2       0.68130    0.87103    0.22721   1.00
C6       0.76042    0.95427    0.24391   1.00
C6       0.73362    0.95868    0.20773   1.00
C6       0.64388    0.66643    0.15447   1.00
C6       0.69961    0.71929    0.12138   1.00
H2       0.71315    0.64720    0.13788   1.00
H2       0.84512    0.79957    0.12655   1.00
C6       0.92948    0.82369    0.14601   1.00
C6       0.86568    0.71689    0.12537   1.00
H2       0.85605    0.71181    0.17369   1.00
C6       0.77894    0.69349    0.19517   1.00
C6       0.77049    0.61262    0.16803   1.00
H2       0.66713    0.71277    0.23020   1.00
H2       0.65592    0.76349    0.24847   1.00
H2       0.69019    0.71132    0.25550   1.00
H2       0.81191    0.80437    0.26797   1.00
H2       0.83753    0.88740    0.25955   1.00
H2       0.75686    0.83724    0.27058   1.00
H2       0.92398    0.97979    0.18733   1.00
H2       0.83839    0.95515    0.18353   1.00
H2       0.88414    1.01035    0.20387   1.00
H2       0.91104    0.88451    0.23389   1.00
H2       0.96467    0.94963    0.21732   1.00
H2       0.91675    0.96563    0.23533   1.00
H2       0.81588    0.98640    0.24383   1.00
H2       0.73860    0.98761    0.24550   1.00
H2       0.74504    0.92306    0.25752   1.00
H2       0.78024    1.00832    0.20789   1.00
H2       0.72746    0.93901    0.19243   1.00
H2       0.69116    0.96773    0.21050   1.00
H2       0.62898    0.70516    0.15580   1.00
H2       0.60192    0.62247    0.14691   1.00
H2       0.64791    0.65004    0.16967   1.00
H2       0.65352    0.67968    0.11396   1.00
H2       0.69302    0.76338    0.12323   1.00
H2       0.74134    0.73271    0.11075   1.00
H2       0.96553    0.84789    0.13353   1.00
H2       0.92838    0.86457    0.15452   1.00
H2       0.94978    0.79949    0.15592   1.00
H2       0.81784    0.67908    0.11839   1.00
H2       0.90251    0.74125    0.11307   1.00
H2       0.88432    0.69045    0.13500   1.00
H2       0.72450    0.67540    0.19636   1.00
H2       0.79126    0.66351    0.20551   1.00
H2       0.80622    0.74579    0.20054   1.00
H2       0.78961    0.58900    0.17866   1.00
H2       0.71488    0.58486    0.16906   1.00
H2       0.78473    0.60492    0.15288   1.00
C4       0.15971    0.79343    0.16356   1.00
C4       0.12976    0.81547    0.14842   1.00
C3       0.15151    0.72705    0.16409   1.00
C3       0.08368    0.77161    0.13342   1.00
C3       0.19933    0.83958    0.17931   1.00
C3       0.14652    0.88519    0.14805   1.00
C2       0.21913    0.75167    0.19527   1.00
C2       0.07015    0.86362    0.11859   1.00
C3       0.18005    0.70658    0.17956   1.00
C3       0.05517    0.79512    0.11879   1.00
C3       0.22876    0.81835    0.19457   1.00
C3       0.11499    0.90717    0.13373   1.00
H1       0.12475    0.69170    0.15321   1.00
H1       0.06914    0.72121    0.13275   1.00
C5       0.20954    0.90671    0.17967   1.00
C5       0.19413    0.93249    0.16207   1.00
H1       0.17199    0.65776    0.17924   1.00
H1       0.02262    0.76123    0.10820   1.00
H1       0.25862    0.85260    0.20545   1.00
H1       0.12416    0.95615    0.13449   1.00
O3       0.23783    0.94705    0.19655   1.00
O3       0.22118    1.00189    0.15951   1.00
Si1      0.18839    0.94865    0.21431   1.00
Si1      0.28737    1.04325    0.14478   1.00
C6       0.25312    0.99690    0.23210   1.00
C6       0.15103    0.99522    0.20487   1.00
C6       0.13022    0.86705    0.22393   1.00
C6       0.31954    0.99648    0.13207   1.00
C6       0.25924    1.08116    0.12688   1.00
C6       0.35208    1.10871    0.15941   1.00
C6       0.30666    0.97338    0.23579   1.00
H2       0.28127    1.04633    0.22456   1.00
C6       0.23529    1.01241    0.25375   1.00
H2       0.18813    1.02760    0.19348   1.00
C6       0.08131    0.95562    0.19345   1.00
C6       0.14287    1.04510    0.21951   1.00
H2       0.16304    0.84521    0.22657   1.00
C6       0.09562    0.86384    0.24481   1.00
C6       0.06983    0.81485    0.21020   1.00
C6       0.34164    0.95322    0.14515   1.00
C6       0.27994    0.95113    0.11339   1.00
H2       0.36666    1.03688    0.12542   1.00
H2       0.22199    1.03824    0.11785   1.00
C6       0.21977    1.11604    0.13552   1.00
C6       0.31319    1.13288    0.11162   1.00
H2       0.33888    1.14895    0.15941   1.00
C6       0.35476    1.09232    0.18225   1.00
C6       0.42719    1.14253    0.15145   1.00
H2       0.33068    0.97142    0.22163   1.00
H2       0.28294    0.92281    0.24274   1.00
H2       0.34772    1.00884    0.24577   1.00
H2       0.27534    1.06248    0.25891   1.00
H2       0.18743    1.01264    0.25412   1.00
H2       0.23190    0.97564    0.26508   1.00
H2       0.07115    0.99076    0.18477   1.00
H2       0.08081    0.91919    0.18259   1.00
H2       0.03915    0.92855    0.20406   1.00
H2       0.19164    1.08228    0.22616   1.00
H2       0.12400    1.07459    0.21143   1.00
H2       0.10679    1.01727    0.23167   1.00
H2       0.07097    0.89475    0.24456   1.00
H2       0.05700    0.81170    0.24886   1.00
H2       0.13241    0.88114    0.25712   1.00
H2       0.02508    0.82093    0.21142   1.00
H2       0.08278    0.81874    0.19425   1.00
H2       0.05405    0.76264    0.21484   1.00
H2       0.29837    0.90361    0.14902   1.00
H2       0.37779    0.94376    0.13678   1.00
H2       0.36673    0.97893    0.15917   1.00
H2       0.31079    0.93347    0.10551   1.00
H2       0.23262    0.90590    0.11777   1.00
H2       0.26806    0.97912    0.10220   1.00
H2       0.19457    1.12757    0.12325   1.00
H2       0.17987    1.08255    0.14612   1.00
H2       0.25361    1.16367    0.14334   1.00
H2       0.34202    1.11195    0.10434   1.00
H2       0.28803    1.14519    0.09952   1.00
H2       0.34900    1.18059    0.11912   1.00
H2       0.36513    1.05058    0.18430   1.00
H2       0.39357    1.13672    0.19047   1.00
H2       0.30617    1.07768    0.18940   1.00
H2       0.46053    1.18872    0.16006   1.00
H2       0.44759    1.10802    0.15287   1.00
H2       0.43099    1.15773    0.13560   1.00
C4       1.02582    0.53295    0.66777   1.00
C4       0.97542    0.51079    0.68340   1.00
C3       1.03035    0.48810    0.65362   1.00
C3       0.92854    0.44115    0.68762   1.00
C3       1.07539    0.60368    0.66624   1.00
C3       0.97099    0.56054    0.69559   1.00
C2       1.13134    0.58132    0.63722   1.00
C2       0.87599    0.47007    0.71560   1.00
C3       1.08186    0.51151    0.63884   1.00
C3       0.87977    0.42132    0.70314   1.00
C3       1.12617    0.62645    0.65097   1.00
C3       0.92341    0.53943    0.71172   1.00
H1       0.99621    0.43713    0.65360   1.00
H1       0.92872    0.40277    0.67961   1.00
C5       1.07373    0.65125    0.67990   1.00
C5       1.01437    0.63103    0.69176   1.00
H1       1.08287    0.47663    0.62911   1.00
H1       0.84679    0.37023    0.70538   1.00
H1       1.16023    0.67757    0.64970   1.00
H1       0.92380    0.57554    0.72112   1.00
O3       1.12776    0.71711    0.68059   1.00
O3       1.00218    0.67937    0.70054   1.00
Si1      1.18927    0.73743    0.69690   1.00
Si1      0.94861    0.69757    0.68958   1.00
C6       1.24458    0.82037    0.68765   1.00
C6       1.15738    0.73991    0.72109   1.00
C6       1.22684    0.68555    0.69511   1.00
C6       0.90639    0.65220    0.66740   1.00
C6       0.88831    0.68118    0.70869   1.00
C6       0.99272    0.78591    0.68475   1.00
C6       1.25566    0.82681    0.66410   1.00
H2       1.21638    0.84663    0.69108   1.00
C6       1.31735    0.86591    0.69707   1.00
H2       1.11652    0.75031    0.71733   1.00
C6       1.12331    0.67312    0.73406   1.00
C6       1.20500    0.79763    0.73616   1.00
H2       1.23516    0.68532    0.67879   1.00
C6       1.29836    0.71266    0.70529   1.00
C6       1.18508    0.60878    0.70188   1.00
C6       0.95097    0.65440    0.64899   1.00
C6       0.84696    0.57653    0.66917   1.00
H2       0.88072    0.67950    0.66232   1.00
H2       0.86109    0.62577    0.71015   1.00
C6       0.91760    0.70912    0.73031   1.00
C6       0.83309    0.70177    0.70438   1.00
H2       0.99178    0.80861    0.69927   1.00
C6       1.06981    0.81848    0.67935   1.00
C6       0.96176    0.81428    0.66886   1.00
H2       1.20728    0.80585    0.65596   1.00
H2       1.28177    0.79995    0.65893   1.00
H2       1.28620    0.88017    0.65948   1.00
H2       1.33125    0.91960    0.69656   1.00
H2       1.32051    0.85335    0.71279   1.00
H2       1.35683    0.86197    0.68868   1.00
H2       1.09332    0.67713    0.74643   1.00
H2       1.08823    0.62883    0.72517   1.00
H2       1.16158    0.66333    0.74084   1.00
H2       1.22399    0.84807    0.72951   1.00
H2       1.17759    0.79664    0.74995   1.00
H2       1.24827    0.79196    0.74073   1.00
H2       1.29738    0.72557    0.72120   1.00
H2       1.31542    0.67521    0.70466   1.00
H2       1.33756    0.75727    0.69743   1.00
H2       1.19074    0.60251    0.71805   1.00
H2       1.13094    0.58523    0.69888   1.00
H2       1.20320    0.57878    0.69373   1.00
H2       0.96748    0.61696    0.65052   1.00
H2       0.92177    0.64271    0.63489   1.00
H2       0.99604    0.70442    0.64707   1.00
H2       0.81996    0.55891    0.65472   1.00
H2       0.86521    0.54179    0.67313   1.00
H2       0.80888    0.57070    0.68034   1.00
H2       0.87704    0.68675    0.74168   1.00
H2       0.95597    0.69574    0.73472   1.00
H2       0.94076    0.76443    0.73118   1.00
H2       0.80828    0.68255    0.68975   1.00
H2       0.79305    0.68024    0.71593   1.00
H2       0.85505    0.75707    0.70463   1.00
H2       1.07781    0.79784    0.66535   1.00
H2       1.09422    0.87381    0.67777   1.00
H2       1.09629    0.80861    0.69144   1.00
H2       0.98762    0.86997    0.66951   1.00
H2       0.96697    0.80001    0.65341   1.00
H2       0.90788    0.79576    0.67172   1.00
C4       0.50719    -0.02580   0.66776   1.00
C4       0.53542    0.02461    0.68340   1.00
C3       0.45846    -0.02980   0.65345   1.00
C3       0.51324    0.07205    0.68743   1.00
C3       0.52768    -0.07592   0.66640   1.00
C3       0.58898    0.02845    0.69576   1.00
C2       0.45000    -0.13134   0.63722   1.00
C2       0.59404    0.12401    0.71560   1.00
C3       0.43034    -0.08132   0.63867   1.00
C3       0.54215    0.12081    0.70296   1.00
C3       0.49966    -0.12671   0.65114   1.00
C3       0.61540    0.07604    0.71189   1.00
H1       0.44215    0.00474    0.65330   1.00
H1       0.47514    0.07230    0.67930   1.00
C5       0.57623    -0.07480   0.68024   1.00
C5       0.61551    -0.01552   0.69212   1.00
H1       0.39493    -0.08194   0.62882   1.00
H1       0.52448    0.15420    0.70508   1.00
H1       0.51624    -0.16118   0.65000   1.00
H1       0.65062    0.07525    0.72141   1.00
O3       0.58732    -0.12929   0.68107   1.00
O3       0.67556    -0.00396   0.70108   1.00
Si1      0.54518    -0.19063   0.69736   1.00
Si1      0.74784    0.04903    0.69027   1.00
C6       0.57224    -0.24662   0.68831   1.00
C6       0.57903    -0.15889   0.72160   1.00
C6       0.45587    -0.22735   0.69533   1.00
C6       0.74586    0.09149    0.66800   1.00
C6       0.79168    0.10922    0.70941   1.00
C6       0.79142    0.00412    0.68569   1.00
C6       0.56816    -0.25778   0.66477   1.00
H2       0.62661    -0.21889   0.69188   1.00
C6       0.54403    -0.31947   0.69778   1.00
H2       0.63058    -0.11842   0.71795   1.00
C6       0.54655    -0.12419   0.73439   1.00
C6       0.58807    -0.20687   0.73681   1.00
H2       0.44774    -0.23566   0.67899   1.00
C6       0.41059    -0.29873   0.70549   1.00
C6       0.42138    -0.18491   0.70189   1.00
C6       0.70374    0.04710    0.64953   1.00
C6       0.73039    0.15147    0.66960   1.00
H2       0.79896    0.11665    0.66306   1.00
H2       0.76394    0.13695    0.71073   1.00
C6       0.78936    0.07984    0.73109   1.00
C6       0.86782    0.16385    0.70526   1.00
H2       0.81451    0.00482    0.70029   1.00
C6       0.74641    -0.07291   0.68028   1.00
C6       0.85122    0.03451    0.66994   1.00
H2       0.59623    -0.20947   0.65664   1.00
H2       0.51535    -0.28342   0.65947   1.00
H2       0.59061    -0.28878   0.66029   1.00
H2       0.58344    -0.33393   0.69745   1.00
H2       0.52792    -0.32242   0.71346   1.00
H2       0.50064    -0.35869   0.68932   1.00
H2       0.58035    -0.09439   0.74682   1.00
H2       0.53807    -0.08882   0.72540   1.00
H2       0.49813    -0.16209   0.74107   1.00
H2       0.61929    -0.22637   0.73031   1.00
H2       0.61426    -0.17958   0.75063   1.00
H2       0.53878    -0.24980   0.74129   1.00
H2       0.42395    -0.29787   0.72145   1.00
H2       0.35622    -0.31525   0.70470   1.00
H2       0.41572    -0.33825   0.69773   1.00
H2       0.40900    -0.19041   0.71803   1.00
H2       0.45253    -0.13082   0.69889   1.00
H2       0.37357    -0.20259   0.69361   1.00
H2       0.64986    0.03114    0.65090   1.00
H2       0.72188    0.07622    0.63544   1.00
H2       0.70817    0.00170    0.64771   1.00
H2       0.74045    0.17848    0.65513   1.00
H2       0.67738    0.13375    0.67341   1.00
H2       0.76258    0.18942    0.68080   1.00
H2       0.80761    0.12045    0.74245   1.00
H2       0.73734    0.04187    0.73539   1.00
H2       0.82102    0.05616    0.73212   1.00
H2       0.87408    0.18870    0.69061   1.00
H2       0.88636    0.20393    0.71680   1.00
H2       0.90068    0.14136    0.70567   1.00
H2       0.71824    -0.08065   0.66619   1.00
H2       0.77688    -0.09783   0.67885   1.00
H2       0.70962    -0.09907   0.69229   1.00
H2       0.88053    0.00814    0.67075   1.00
H2       0.83223    0.02946    0.65443   1.00
H2       0.88692    0.08829    0.67282   1.00
C4       0.46700    0.49282    0.66776   1.00
C4       0.48918    0.46458    0.68340   1.00
C3       0.51174    0.54157    0.65345   1.00
C3       0.55880    0.48679    0.68744   1.00
C3       0.39639    0.47230    0.66639   1.00
C3       0.43947    0.41100    0.69575   1.00
C2       0.41865    0.55000    0.63722   1.00
C2       0.52996    0.40596    0.71560   1.00
C3       0.48834    0.56969    0.63868   1.00
C3       0.57865    0.45788    0.70297   1.00
C3       0.37362    0.50032    0.65113   1.00
C3       0.46063    0.38458    0.71188   1.00
H1       0.56260    0.55791    0.65331   1.00
H1       0.59716    0.52491    0.67931   1.00
C5       0.34895    0.42371    0.68022   1.00
C5       0.36896    0.38444    0.69210   1.00
H1       0.52313    0.60513    0.62883   1.00
H1       0.62972    0.47557    0.70509   1.00
H1       0.32257    0.48371    0.64998   1.00
H1       0.42461    0.34932    0.72140   1.00
O3       0.28335    0.41259    0.68105   1.00
O3       0.32048    0.32437    0.70105   1.00
Si1      0.26411    0.45469    0.69734   1.00
Si1      0.30123    0.25210    0.69024   1.00
C6       0.18106    0.42760    0.68828   1.00
C6       0.26198    0.42081    0.72158   1.00
C6       0.31666    0.54400    0.69532   1.00
C6       0.34571    0.25414    0.66797   1.00
C6       0.31759    0.20827    0.70938   1.00
C6       0.21275    0.20850    0.68565   1.00
C6       0.17401    0.43170    0.66474   1.00
H2       0.15443    0.37322    0.69185   1.00
C6       0.13638    0.45576    0.69775   1.00
H2       0.25094    0.36928    0.71792   1.00
C6       0.32915    0.45331    0.73438   1.00
C6       0.20492    0.41172    0.73678   1.00
H2       0.31650    0.55215    0.67898   1.00
C6       0.29051    0.58924    0.70548   1.00
C6       0.39358    0.57851    0.70189   1.00
C6       0.34345    0.29627    0.64950   1.00
C6       0.42118    0.26965    0.66958   1.00
H2       0.31781    0.20105    0.66302   1.00
H2       0.37305    0.23602    0.71070   1.00
C6       0.29048    0.21054    0.73105   1.00
C6       0.29613    0.13214    0.70522   1.00
H2       0.19035    0.18538    0.70024   1.00
C6       0.18071    0.25349    0.68024   1.00
C6       0.18339    0.14872    0.66989   1.00
H2       0.19428    0.40366    0.65661   1.00
H2       0.20116    0.48452    0.65945   1.00
H2       0.12056    0.40923    0.66026   1.00
H2       0.08253    0.41634    0.69741   1.00
H2       0.14951    0.47185    0.71343   1.00
H2       0.14054    0.49916    0.68929   1.00
H2       0.32513    0.41949    0.74681   1.00
H2       0.37301    0.46182    0.72539   1.00
H2       0.33963    0.50170    0.74106   1.00
H2       0.15422    0.38049    0.73027   1.00
H2       0.20602    0.38552    0.75060   1.00
H2       0.21126    0.46100    0.74127   1.00
H2       0.27800    0.57586    0.72144   1.00
H2       0.32835    0.64362    0.70470   1.00
H2       0.24587    0.58410    0.69772   1.00
H2       0.40044    0.59088    0.71803   1.00
H2       0.41656    0.54739    0.69889   1.00
H2       0.42372    0.62634    0.69362   1.00
H2       0.38134    0.35016    0.65089   1.00
H2       0.35446    0.27816    0.63541   1.00
H2       0.29361    0.29182    0.64768   1.00
H2       0.43816    0.25962    0.65511   1.00
H2       0.45645    0.32265    0.67339   1.00
H2       0.42694    0.23745    0.68078   1.00
H2       0.31285    0.19230    0.74241   1.00
H2       0.30451    0.26255    0.73536   1.00
H2       0.23515    0.17886    0.73207   1.00
H2       0.31474    0.12591    0.69057   1.00
H2       0.31767    0.11361    0.71676   1.00
H2       0.24077    0.09926    0.70562   1.00
H2       0.20115    0.28168    0.66616   1.00
H2       0.12531    0.22299    0.67881   1.00
H2       0.19130    0.29026    0.69225   1.00
H2       0.12771    0.11939    0.67069   1.00
H2       0.19734    0.16774    0.65439   1.00
H2       0.20149    0.11303    0.67277   1.00
C4       0.46480    -0.03202   0.16961   1.00
C4       0.48759    0.02013    0.18473   1.00
C3       0.49725    -0.07064   0.16564   1.00
C3       0.54853    0.04309    0.19608   1.00
C3       0.40698    -0.04607   0.15749   1.00
C3       0.44759    0.05136    0.18892   1.00
C2       0.41761    -0.13427   0.13809   1.00
C2       0.53100    0.12694    0.21473   1.00
C3       0.47458    -0.12009   0.15024   1.00
C3       0.56935    0.09457    0.21080   1.00
C3       0.38414    -0.09705   0.14229   1.00
C3       0.47096    0.10516    0.20320   1.00
H1       0.53816    -0.06414   0.17386   1.00
H1       0.57981    0.02339    0.19390   1.00
C5       0.37218    -0.00932   0.16069   1.00
C5       0.38484    0.02926    0.17874   1.00
H1       0.50038    -0.14607   0.14796   1.00
H1       0.61358    0.10870    0.21866   1.00
H1       0.34147    -0.10788   0.13409   1.00
H1       0.44401    0.12994    0.20509   1.00
O3       0.32398    -0.01480   0.14689   1.00
O3       0.33920    0.04885    0.18531   1.00
Si1      0.34608    0.04030    0.12841   1.00
Si1      0.28565    0.00523    0.20335   1.00
C6       0.26818    -0.00115   0.11503   1.00
C6       0.36019    0.11781    0.13899   1.00
C6       0.41386    0.04644    0.11358   1.00
C6       0.29067    -0.06345   0.21426   1.00
C6       0.30261    0.06713    0.22198   1.00
C6       0.20295    -0.02334   0.19389   1.00
C6       0.23721    -0.07969   0.11160   1.00
H2       0.23333    0.00345    0.12550   1.00
C6       0.25949    0.02740    0.09422   1.00
H2       0.32861    0.10043    0.15261   1.00
C6       0.43369    0.17031    0.14647   1.00
C6       0.33553    0.16109    0.12695   1.00
H2       0.39763    -0.00711   0.11076   1.00
C6       0.42522    0.08071    0.09220   1.00
C6       0.48747    0.07954    0.12293   1.00
C6       0.28350    -0.12167   0.19992   1.00
C6       0.35018    -0.04845   0.22928   1.00
H2       0.24542    -0.08712   0.22389   1.00
H2       0.35275    0.07988    0.22776   1.00
C6       0.31042    0.13611    0.21429   1.00
C6       0.25388    0.04501    0.24074   1.00
H2       0.19595    0.02075    0.19553   1.00
C6       0.19186    -0.04136   0.17087   1.00
C6       0.14143    -0.08350   0.20518   1.00
H2       0.23079    -0.10655   0.12591   1.00
H2       0.26978    -0.09008   0.10175   1.00
H2       0.18673    -0.10230   0.10462   1.00
H2       0.20713    0.01715    0.09263   1.00
H2       0.29310    0.08210    0.09268   1.00
H2       0.26899    0.00318    0.08128   1.00
H2       0.43263    0.20844    0.15641   1.00
H2       0.45640    0.14609    0.15526   1.00
H2       0.46725    0.19740    0.13374   1.00
H2       0.28120    0.13139    0.12349   1.00
H2       0.34253    0.20500    0.13581   1.00
H2       0.36401    0.18049    0.11282   1.00
H2       0.43031    0.13116    0.09336   1.00
H2       0.47102    0.08657    0.08473   1.00
H2       0.38354    0.04955    0.08195   1.00
H2       0.51590    0.13478    0.12094   1.00
H2       0.48777    0.06976    0.13900   1.00
H2       0.51667    0.05921    0.11545   1.00
H2       0.33169    -0.10865   0.19264   1.00
H2       0.26752    -0.16857   0.20852   1.00
H2       0.24552    -0.13366   0.18812   1.00
H2       0.34094    -0.09530   0.23686   1.00
H2       0.39910    -0.02772   0.22162   1.00
H2       0.35499    -0.01316   0.24128   1.00
H2       0.33213    0.17486    0.22620   1.00
H2       0.34499    0.15601    0.20132   1.00
H2       0.26160    0.13082    0.20983   1.00
H2       0.24700    -0.00197   0.24753   1.00
H2       0.27513    0.08425    0.25253   1.00
H2       0.20387    0.03758    0.23666   1.00
H2       0.20006    -0.08358   0.16707   1.00
H2       0.14056    -0.05471   0.16598   1.00
H2       0.22732    0.00250    0.16196   1.00
H2       0.09301    -0.08938   0.19986   1.00
H2       0.14001    -0.13187   0.20260   1.00
H2       0.14356    -0.07469   0.22148   1.00
C4       1.02925    0.48788    0.16860   1.00
C4       0.97867    0.45990    0.18420   1.00
C3       1.08016    0.46953    0.16576   1.00
C3       0.97772    0.41560    0.19960   1.00
C3       1.03011    0.53782    0.15520   1.00
C3       0.92568    0.47661    0.18455   1.00
C2       1.13185    0.54928    0.13734   1.00
C2       0.87548    0.40668    0.21548   1.00
C3       1.13029    0.49963    0.15064   1.00
C3       0.92720    0.38919    0.21470   1.00
C3       1.08034    0.56665    0.13980   1.00
C3       0.87697    0.45180    0.20040   1.00
H1       1.08217    0.43358    0.17454   1.00
H1       1.01393    0.40155    0.20038   1.00
C5       0.98063    0.55843    0.15721   1.00
C5       0.92185    0.51844    0.16921   1.00
H1       1.16612    0.48470    0.14940   1.00
H1       0.92874    0.35691    0.22535   1.00
H1       1.07917    0.60101    0.12995   1.00
H1       0.84199    0.46772    0.20118   1.00
O3       0.98831    0.61427    0.14661   1.00
O3       0.86426    0.52421    0.16692   1.00
Si1      1.02652    0.68949    0.15724   1.00
Si1      0.80073    0.46698    0.15354   1.00
C6       1.03051    0.73678    0.13548   1.00
C6       0.97023    0.69074    0.17548   1.00
C6       1.10885    0.71359    0.16636   1.00
C6       0.80758    0.39847    0.14332   1.00
C6       0.73210    0.43523    0.17062   1.00
C6       0.78477    0.51045    0.13407   1.00
C6       1.05674    0.71931    0.11562   1.00
H2       0.97677    0.71960    0.13269   1.00
C6       1.06718    0.81673    0.13610   1.00
H2       0.92073    0.65211    0.16961   1.00
C6       0.97395    0.66829    0.19766   1.00
C6       0.96551    0.75705    0.17780   1.00
H2       1.13132    0.70146    0.15348   1.00
C6       1.15770    0.79107    0.17101   1.00
C6       1.11689    0.67588    0.18526   1.00
C6       0.86942    0.41564    0.12912   1.00
C6       0.79956    0.33964    0.15762   1.00
H2       0.76271    0.37354    0.13356   1.00
H2       0.74386    0.40650    0.18158   1.00
C6       0.72500    0.48970    0.18338   1.00
C6       0.65954    0.38472    0.16208   1.00
H2       0.75451    0.52962    0.14145   1.00
C6       0.84814    0.57500    0.12533   1.00
C6       0.74207    0.46825    0.11532   1.00
H2       1.02671    0.66510    0.11196   1.00
H2       1.11005    0.73255    0.11709   1.00
H2       1.05272    0.74694    0.10258   1.00
H2       1.04143    0.83482    0.12594   1.00
H2       1.06753    0.83654    0.15114   1.00
H2       1.12006    0.84058    0.13098   1.00
H2       0.92813    0.65739    0.20618   1.00
H2       0.97699    0.62184    0.19806   1.00
H2       1.01771    0.70832    0.20577   1.00
H2       0.95280    0.77189    0.16342   1.00
H2       0.92522    0.74945    0.18844   1.00
H2       1.01335    0.79932    0.18348   1.00
H2       1.13381    0.81065    0.18134   1.00
H2       1.20564    0.80051    0.17790   1.00
H2       1.17249    0.82130    0.15721   1.00
H2       1.11477    0.69916    0.19954   1.00
H2       1.07841    0.62241    0.18608   1.00
H2       1.16633    0.67827    0.18475   1.00
H2       0.91499    0.42718    0.13773   1.00
H2       0.85801    0.37216    0.11936   1.00
H2       0.88163    0.45866    0.11919   1.00
H2       0.79540    0.29691    0.14874   1.00
H2       0.84298    0.35588    0.16772   1.00
H2       0.75347    0.31908    0.16684   1.00
H2       0.68877    0.46519    0.19580   1.00
H2       0.77356    0.52658    0.19027   1.00
H2       0.70699    0.51765    0.17421   1.00
H2       0.65914    0.34349    0.15341   1.00
H2       0.62309    0.36099    0.17451   1.00
H2       0.64074    0.41090    0.15240   1.00
H2       0.88410    0.56282    0.11814   1.00
H2       0.83347    0.60113    0.11422   1.00
H2       0.87480    0.61107    0.13746   1.00
H2       0.72690    0.49834    0.10597   1.00
H2       0.77126    0.45272    0.10571   1.00
H2       0.69526    0.42258    0.11990   1.00
C4       0.51232    0.54099    0.16843   1.00
C4       0.54039    0.51856    0.18405   1.00
C3       0.53709    0.61068    0.16373   1.00
C3       0.59179    0.56349    0.19771   1.00
C3       0.45561    0.49142    0.15697   1.00
C3       0.51629    0.44738    0.18625   1.00
C2       0.45059    0.58228    0.13730   1.00
C2       0.59345    0.46911    0.21552   1.00
C3       0.50688    0.63082    0.14868   1.00
C3       0.61807    0.53953    0.21290   1.00
C3       0.42666    0.51274    0.14159   1.00
C3       0.54136    0.42410    0.20220   1.00
H1       0.57796    0.64885    0.17106   1.00
H1       0.61135    0.61490    0.19711   1.00
C5       0.42839    0.42088    0.16090   1.00
C5       0.46693    0.39973    0.17268   1.00
H1       0.52668    0.68198    0.14605   1.00
H1       0.65561    0.57442    0.22223   1.00
H1       0.38723    0.47658    0.13312   1.00
H1       0.52048    0.37278    0.20439   1.00
O3       0.36721    0.37396    0.15228   1.00
O3       0.45293    0.33294    0.17196   1.00
Si1      0.29624    0.34827    0.16479   1.00
Si1      0.50093    0.31443    0.15797   1.00
C6       0.24005    0.30173    0.14486   1.00
C6       0.29369    0.29371    0.18428   1.00
C6       0.28408    0.41580    0.17286   1.00
C6       0.57062    0.38157    0.14508   1.00
C6       0.53119    0.27695    0.17534   1.00
C6       0.44700    0.25112    0.14063   1.00
C6       0.25539    0.33904    0.12385   1.00
H2       0.25052    0.26003    0.14268   1.00
C6       0.16072    0.26678    0.14764   1.00
H2       0.32628    0.27528    0.17814   1.00
C6       0.32484    0.32560    0.20539   1.00
C6       0.22407    0.22828    0.18919   1.00
H2       0.29556    0.44651    0.15909   1.00
C6       0.21016    0.39730    0.17927   1.00
C6       0.33078    0.46526    0.19004   1.00
C6       0.55576    0.42628    0.13017   1.00
C6       0.63607    0.43209    0.15726   1.00
H2       0.58813    0.35410    0.13548   1.00
H2       0.56638    0.31945    0.18488   1.00
C6       0.47706    0.22334    0.19024   1.00
C6       0.57254    0.24429    0.16664   1.00
H2       0.42539    0.20392    0.14939   1.00
C6       0.38423    0.25549    0.13291   1.00
C6       0.48009    0.23895    0.12139   1.00
H2       0.30751    0.35623    0.11887   1.00
H2       0.24860    0.38350    0.12458   1.00
H2       0.22167    0.30504    0.11203   1.00
H2       0.13524    0.21962    0.13882   1.00
H2       0.14472    0.25378    0.16333   1.00
H2       0.14061    0.29885    0.14222   1.00
H2       0.33328    0.29012    0.21450   1.00
H2       0.37421    0.37181    0.20396   1.00
H2       0.29078    0.33742    0.21395   1.00
H2       0.20229    0.19650    0.17576   1.00
H2       0.23041    0.19628    0.20042   1.00
H2       0.18739    0.24154    0.19532   1.00
H2       0.18985    0.35740    0.19083   1.00
H2       0.20841    0.44137    0.18536   1.00
H2       0.17580    0.38049    0.16635   1.00
H2       0.31057    0.44619    0.20515   1.00
H2       0.38248    0.47431    0.18973   1.00
H2       0.33429    0.51501    0.18847   1.00
H2       0.55207    0.46649    0.13811   1.00
H2       0.59697    0.45122    0.11909   1.00
H2       0.50887    0.39621    0.12164   1.00
H2       0.67767    0.46425    0.14691   1.00
H2       0.62762    0.46616    0.16690   1.00
H2       0.65487    0.40549    0.16671   1.00
H2       0.50226    0.21181    0.20250   1.00
H2       0.44652    0.24273    0.19735   1.00
H2       0.44247    0.17555    0.18260   1.00
H2       0.61311    0.27911    0.15647   1.00
H2       0.59691    0.23182    0.17894   1.00
H2       0.53956    0.19714    0.15843   1.00
H2       0.39926    0.30231    0.12447   1.00
H2       0.35136    0.21228    0.12319   1.00
H2       0.35347    0.25426    0.14570   1.00
H2       0.44355    0.19212    0.11358   1.00
H2       0.49702    0.28093    0.11058   1.00
H2       0.52374    0.23325    0.12531   1.00
C4       0.63477    0.79838    0.66376   1.00
C4       0.68692    0.82111    0.64864   1.00
C3       0.59826    0.83260    0.66834   1.00
C3       0.71203    0.88352    0.63792   1.00
C3       0.61851    0.73871    0.67525   1.00
C3       0.71590    0.77952    0.64380   1.00
C2       0.53240    0.75105    0.69525   1.00
C2       0.79359    0.86424    0.61861   1.00
C3       0.54876    0.80985    0.68372   1.00
C3       0.76344    0.90423    0.62318   1.00
C3       0.56750    0.71586    0.69045   1.00
C3       0.76967    0.80269    0.62953   1.00
H1       0.60640    0.87492    0.66058   1.00
H1       0.69401    0.91598    0.64059   1.00
C5       0.65309    0.70208    0.67143   1.00
C5       0.69158    0.71537    0.65333   1.00
H1       0.52436    0.83696    0.68645   1.00
H1       0.77917    0.94959    0.61578   1.00
H1       0.55505    0.67192    0.69818   1.00
H1       0.79284    0.77441    0.62718   1.00
O3       0.64559    0.65168    0.68467   1.00
O3       0.70894    0.66875    0.64610   1.00
Si1      0.70022    0.66995    0.70310   1.00
Si1      0.66425    0.61790    0.62767   1.00
C6       0.65630    0.59079    0.71576   1.00
C6       0.77679    0.68232    0.69228   1.00
C6       0.70885    0.73719    0.71871   1.00
C6       0.59736    0.62701    0.61720   1.00
C6       0.72574    0.63468    0.60891   1.00
C6       0.63279    0.53375    0.63628   1.00
C6       0.57811    0.56206    0.71924   1.00
H2       0.65949    0.55622    0.70484   1.00
C6       0.68366    0.57852    0.73629   1.00
H2       0.75863    0.65230    0.67838   1.00
C6       0.83128    0.75590    0.68541   1.00
C6       0.81800    0.65411    0.70377   1.00
H2       0.65574    0.72253    0.72163   1.00
C6       0.74262    0.74505    0.74003   1.00
C6       0.74438    0.81188    0.71008   1.00
C6       0.53991    0.62053    0.63177   1.00
C6       0.61465    0.68868    0.60283   1.00
H2       0.57244    0.58290    0.60715   1.00
H2       0.74035    0.68590    0.60368   1.00
C6       0.79350    0.63899    0.61632   1.00
C6       0.70231    0.58795    0.58970   1.00
H2       0.67567    0.52499    0.63430   1.00
C6       0.61443    0.52070    0.65925   1.00
C6       0.57149    0.47473    0.62457   1.00
H2       0.55172    0.55817    0.70500   1.00
H2       0.56917    0.59462    0.72953   1.00
H2       0.55383    0.51078    0.72572   1.00
H2       0.67146    0.52539    0.73730   1.00
H2       0.73856    0.61037    0.73793   1.00
H2       0.66019    0.58779    0.74947   1.00
H2       0.86867    0.75434    0.67525   1.00
H2       0.80860    0.78099    0.67703   1.00
H2       0.85904    0.78762    0.69839   1.00
H2       0.78666    0.59957    0.70673   1.00
H2       0.86137    0.66040    0.69477   1.00
H2       0.83801    0.68081    0.71813   1.00
H2       0.79223    0.74830    0.73866   1.00
H2       0.75016    0.79068    0.74802   1.00
H2       0.71030    0.70273    0.74994   1.00
H2       0.79960    0.83838    0.71212   1.00
H2       0.73500    0.81432    0.69408   1.00
H2       0.72560    0.84166    0.71802   1.00
H2       0.55456    0.66833    0.63955   1.00
H2       0.49345    0.60708    0.62323   1.00
H2       0.52648    0.58102    0.64316   1.00
H2       0.56850    0.68199    0.59540   1.00
H2       0.63686    0.73687    0.61097   1.00
H2       0.64952    0.69344    0.59070   1.00
H2       0.83246    0.66082    0.60447   1.00
H2       0.81425    0.67201    0.62960   1.00
H2       0.78627    0.58896    0.62022   1.00
H2       0.65612    0.58359    0.58308   1.00
H2       0.74172    0.60928    0.57796   1.00
H2       0.69293    0.53683    0.59321   1.00
H2       0.57340    0.53037    0.66337   1.00
H2       0.59920    0.46842    0.66358   1.00
H2       0.65872    0.55408    0.66833   1.00
H2       0.56369    0.42504    0.62933   1.00
H2       0.52407    0.47498    0.62740   1.00
H2       0.58039    0.47830    0.60826   1.00
C4       0.16356    0.36226    0.66460   1.00
C4       0.13346    0.31042    0.64941   1.00
C3       0.20936    0.36403    0.67961   1.00
C3       0.14121    0.25197    0.64885   1.00
C3       0.14648    0.41498    0.66513   1.00
C3       0.09337    0.31687    0.63379   1.00
C2       0.21962    0.46695    0.69541   1.00
C2       0.06966    0.20706    0.61845   1.00
C3       0.23634    0.41468    0.69467   1.00
C3       0.11074    0.20201    0.63370   1.00
C3       0.17524    0.46634    0.68021   1.00
C3       0.06072    0.26452    0.61917   1.00
H1       0.22465    0.32870    0.68001   1.00
H1       0.16887    0.24374    0.65951   1.00
C5       0.10101    0.41622    0.65055   1.00
C5       0.08553    0.37511    0.63293   1.00
H1       0.26883    0.41306    0.70522   1.00
H1       0.11860    0.16113    0.63395   1.00
H1       0.16400    0.50489    0.68007   1.00
H1       0.02869    0.26775    0.60888   1.00
O3       0.07588    0.45999    0.65310   1.00
O3       0.05878    0.38897    0.61594   1.00
Si1      0.00296    0.43347    0.66457   1.00
Si1      0.10953    0.42992    0.59707   1.00
C6       0.00708    0.51328    0.66609   1.00
C6       -0.06178   0.37815    0.64777   1.00
C6       -0.00029   0.39953    0.68892   1.00
C6       0.19608    0.45204    0.59895   1.00
C6       0.07153    0.37419    0.57652   1.00
C6       0.10326    0.50332    0.59266   1.00
C6       0.07618    0.57408    0.67395   1.00
H2       0.00395    0.52467    0.65016   1.00
C6       -0.05004   0.52098    0.67720   1.00
H2       -0.03712   0.39586    0.63305   1.00
C6       -0.08581   0.30030    0.64861   1.00
C6       -0.12894   0.38176    0.64658   1.00
H2       0.04773    0.43830    0.69563   1.00
C6       -0.05799   0.39228    0.70359   1.00
C6       -0.00168   0.32969    0.69101   1.00
C6       0.23824    0.49646    0.61741   1.00
C6       0.21609    0.39552    0.59626   1.00
H2       0.21852    0.48455    0.58568   1.00
H2       0.08019    0.33190    0.57981   1.00
C6       -0.00765   0.34135    0.57450   1.00
C6       0.10200    0.40096    0.55496   1.00
H2       0.05672    0.48471    0.58371   1.00
C6       0.09177    0.53720    0.61169   1.00
C6       0.16105    0.56271    0.58004   1.00
H2       0.11929    0.58012    0.66492   1.00
H2       0.08545    0.56648    0.68975   1.00
H2       0.07637    0.62237    0.67297   1.00
H2       -0.05708   0.56014    0.66973   1.00
H2       -0.09911   0.47415    0.67725   1.00
H2       -0.03690   0.53709    0.69296   1.00
H2       -0.11453   0.27439    0.63495   1.00
H2       -0.04309   0.29108    0.64935   1.00
H2       -0.11903   0.27587    0.66162   1.00
H2       -0.11833   0.43319    0.64299   1.00
H2       -0.16255   0.34880    0.63455   1.00
H2       -0.15728   0.36540    0.66083   1.00
H2       -0.10813   0.36333    0.69651   1.00
H2       -0.05900   0.36650    0.71774   1.00
H2       -0.04999   0.44183    0.70818   1.00
H2       -0.05345   0.28620    0.69035   1.00
H2       0.02758    0.32172    0.67944   1.00
H2       0.01977    0.32724    0.70565   1.00
H2       0.23067    0.46550    0.63086   1.00
H2       0.29278    0.52284    0.61397   1.00
H2       0.22541    0.53545    0.62125   1.00
H2       0.27144    0.41845    0.59496   1.00
H2       0.20018    0.36062    0.60907   1.00
H2       0.19457    0.36572    0.58248   1.00
H2       -0.02778   0.29930    0.56360   1.00
H2       -0.03329   0.32002    0.58893   1.00
H2       -0.02220   0.37809    0.56935   1.00
H2       0.15727    0.42309    0.55478   1.00
H2       0.08108    0.35906    0.54400   1.00
H2       0.08979    0.43922    0.54957   1.00
H2       0.13419    0.55583    0.62234   1.00
H2       0.08444    0.57981    0.60754   1.00
H2       0.04599    0.50032    0.61960   1.00
H2       0.14625    0.60017    0.57574   1.00
H2       0.20843    0.58944    0.58871   1.00
H2       0.17161    0.54426    0.56601   1.00
C4       0.19880    0.83633    0.66453   1.00
C4       0.17700    0.86641    0.64936   1.00
C3       0.15413    0.78790    0.67892   1.00
C3       0.10975    0.85582    0.64822   1.00
C3       0.26927    0.85618    0.66573   1.00
C3       0.22455    0.90944    0.63436   1.00
C2       0.24741    0.78041    0.69539   1.00
C2       0.13730    0.93031    0.61847   1.00
C3       0.17778    0.76097    0.69400   1.00
C3       0.09024    0.88636    0.63309   1.00
C3       0.29190    0.82746    0.68081   1.00
C3       0.20465    0.94204    0.61978   1.00
H1       0.10307    0.77059    0.67882   1.00
H1       0.07308    0.82596    0.65842   1.00
C5       0.31663    0.90436    0.65180   1.00
C5       0.29184    0.92027    0.63408   1.00
H1       0.14317    0.72649    0.70408   1.00
H1       0.04075    0.87640    0.63291   1.00
H1       0.34228    0.84076    0.68114   1.00
H1       0.24043    0.97610    0.60996   1.00
O3       0.38556    0.93179    0.65505   1.00
O3       0.33416    0.95019    0.61758   1.00
Si1      0.42815    1.00376    0.66730   1.00
Si1      0.32883    0.90238    0.59835   1.00
C6       0.50552    1.00310    0.66941   1.00
C6       0.43675    1.06926    0.65097   1.00
C6       0.39366    1.00273    0.69140   1.00
C6       0.26684    0.81475    0.59921   1.00
C6       0.31140    0.94095    0.57790   1.00
C6       0.41051    0.91271    0.59463   1.00
C6       0.49936    0.93442    0.67680   1.00
H2       0.52215    1.00864    0.65363   1.00
C6       0.56772    1.06056    0.68136   1.00
H2       0.43260    1.04656    0.63606   1.00
C6       0.38049    1.09010    0.65151   1.00
C6       0.50605    1.13819    0.65074   1.00
H2       0.38566    0.95470    0.69776   1.00
C6       0.44072    1.05969    0.70680   1.00
C6       0.32338    1.00067    0.69295   1.00
C6       0.26890    0.77163    0.61744   1.00
C6       0.18989    0.79198    0.59579   1.00
H2       0.27981    0.79485    0.58590   1.00
H2       0.25933    0.92976    0.58072   1.00
C6       0.35526    1.02057    0.57671   1.00
C6       0.31167    0.91352    0.55615   1.00
H2       0.43794    0.96041    0.58618   1.00
C6       0.45403    0.92386    0.61408   1.00
C6       0.41641    0.85785    0.58170   1.00
H2       0.46460    0.89167    0.66723   1.00
H2       0.48063    0.92280    0.69240   1.00
H2       0.54865    0.93658    0.67620   1.00
H2       0.61553    1.07043    0.67431   1.00
H2       0.56769    1.10852    0.68171   1.00
H2       0.56948    1.04609    0.69706   1.00
H2       0.38366    1.11979    0.63805   1.00
H2       0.32933    1.04593    0.65158   1.00
H2       0.38632    1.12143    0.66477   1.00
H2       0.54872    1.13015    0.64742   1.00
H2       0.50658    1.17238    0.63892   1.00
H2       0.51523    1.16477    0.66523   1.00
H2       0.46087    1.11038    0.70018   1.00
H2       0.41364    1.05792    0.72075   1.00
H2       0.48300    1.05329    0.71168   1.00
H2       0.32947    1.05162    0.69265   1.00
H2       0.28811    0.97171    0.68092   1.00
H2       0.29818    0.97697    0.70726   1.00
H2       0.24301    0.77640    0.63073   1.00
H2       0.24312    0.71751    0.61346   1.00
H2       0.32080    0.78612    0.62177   1.00
H2       0.15953    0.73664    0.59391   1.00
H2       0.16816    0.80515    0.60853   1.00
H2       0.18208    0.81415    0.58208   1.00
H2       0.33322    1.04042    0.56576   1.00
H2       0.35670    1.04414    0.59131   1.00
H2       0.40763    1.03773    0.57206   1.00
H2       0.28044    0.85809    0.55538   1.00
H2       0.29057    0.93419    0.54515   1.00
H2       0.36334    0.92839    0.55125   1.00
H2       0.43042    0.88017    0.62429   1.00
H2       0.50523    0.93380    0.61037   1.00
H2       0.46000    0.96802    0.62231   1.00
H2       0.46965    0.87521    0.57791   1.00
H2       0.39649    0.80969    0.58992   1.00
H2       0.38896    0.84780    0.56738   1.00
