data_IRMOF10_interpen_symm_ligand2cp_label_g.

_audit_creation_method             'generated by an auxiliary program of Tobunporous'

_symmetry_space_group_name_H-M     'P 1'
_symmetry_Int_Tables_number        1
_symmetry_cell_setting             triclinic

_cell_length_a                    22.6523
_cell_length_b                    22.6523
_cell_length_c                    65.9502
_cell_angle_alpha                 90.0000
_cell_angle_beta                  90.0000
_cell_angle_gamma                 120.0000

loop_
_atom_site_label
_atom_site_fract_x
_atom_site_fract_y
_atom_site_fract_z
_atom_site_occupancy
O1       0.00000    0.00000    0.57470   1.00
Zn      0.00000    0.00000    0.54560   1.00
Zn      0.94843    0.04287    0.58357   1.00
Zn      0.09443    0.05157    0.58357   1.00
Zn      0.95713    0.90557    0.58357   1.00
O2       0.93860    0.02610    0.53560   1.00
O2       0.08750    0.06140    0.53560   1.00
O2       0.97390    0.91250    0.53560   1.00
O2       0.91300    0.07160    0.56150   1.00
O2       0.00463    0.12027    0.60077   1.00
O2       0.87413    0.98077    0.60037   1.00
O2       0.15860    0.08700    0.56150   1.00
O2       0.10663    0.12587    0.60037   1.00
O2       0.11563    0.99537    0.60077   1.00
O2       0.92840    0.84140    0.56150   1.00
O2       0.87973    0.88437    0.60077   1.00
O2       0.01923    0.89337    0.60037   1.00
C1       0.91390    0.06020    0.54330   1.00
C1       0.14630    0.08610    0.54330   1.00
C1       0.93980    0.85370    0.54330   1.00
C1       0.06663    0.14397    0.60637   1.00
C1       0.85603    0.92267    0.60637   1.00
C1       0.07733    0.93337    0.60637   1.00
O1       0.00000    0.00000    0.92530   1.00
Zn      0.00000    0.00000    0.95440   1.00
Zn      0.04287    0.94843    0.91643   1.00
Zn      0.05157    0.09443    0.91643   1.00
Zn      0.90557    0.95713    0.91643   1.00
O2       0.02610    0.93860    0.96440   1.00
O2       0.06140    0.08750    0.96440   1.00
O2       0.91250    0.97390    0.96440   1.00
O2       0.07160    0.91300    0.93850   1.00
O2       0.12027    0.00463    0.89923   1.00
O2       0.98077    0.87413    0.89963   1.00
O2       0.08700    0.15860    0.93850   1.00
O2       0.12587    0.10663    0.89963   1.00
O2       0.99537    0.11563    0.89923   1.00
O2       0.84140    0.92840    0.93850   1.00
O2       0.88437    0.87973    0.89923   1.00
O2       0.89337    0.01923    0.89963   1.00
C1       0.06020    0.91390    0.95670   1.00
C1       0.08610    0.14630    0.95670   1.00
C1       0.85370    0.93980    0.95670   1.00
C1       0.14397    0.06663    0.89363   1.00
C1       0.92267    0.85603    0.89363   1.00
C1       0.93337    0.07733    0.89363   1.00
O1       0.00000    0.00000    0.42530   1.00
Zn      0.00000    0.00000    0.45440   1.00
Zn      0.05157    0.95713    0.41643   1.00
Zn      0.90557    0.94843    0.41643   1.00
Zn      0.04287    0.09443    0.41643   1.00
O2       0.06140    0.97390    0.46440   1.00
O2       0.91250    0.93860    0.46440   1.00
O2       0.02610    0.08750    0.46440   1.00
O2       0.08700    0.92840    0.43850   1.00
O2       0.99537    0.87973    0.39923   1.00
O2       0.12587    0.01923    0.39963   1.00
O2       0.84140    0.91300    0.43850   1.00
O2       0.89337    0.87413    0.39963   1.00
O2       0.88437    0.00463    0.39923   1.00
O2       0.07160    0.15860    0.43850   1.00
O2       0.12027    0.11563    0.39923   1.00
O2       0.98077    0.10663    0.39963   1.00
C1       0.08610    0.93980    0.45670   1.00
C1       0.85370    0.91390    0.45670   1.00
C1       0.06020    0.14630    0.45670   1.00
C1       0.93337    0.85603    0.39363   1.00
C1       0.14397    0.07733    0.39363   1.00
C1       0.92267    0.06663    0.39363   1.00
O1       0.00000    0.00000    0.07470   1.00
Zn      0.00000    0.00000    0.04560   1.00
Zn      0.95713    0.05157    0.08357   1.00
Zn      0.94843    0.90557    0.08357   1.00
Zn      0.09443    0.04287    0.08357   1.00
O2       0.97390    0.06140    0.03560   1.00
O2       0.93860    0.91250    0.03560   1.00
O2       0.08750    0.02610    0.03560   1.00
O2       0.92840    0.08700    0.06150   1.00
O2       0.87973    0.99537    0.10077   1.00
O2       0.01923    0.12587    0.10037   1.00
O2       0.91300    0.84140    0.06150   1.00
O2       0.87413    0.89337    0.10037   1.00
O2       0.00463    0.88437    0.10077   1.00
O2       0.15860    0.07160    0.06150   1.00
O2       0.11563    0.12027    0.10077   1.00
O2       0.10663    0.98077    0.10037   1.00
C1       0.93980    0.08610    0.04330   1.00
C1       0.91390    0.85370    0.04330   1.00
C1       0.14630    0.06020    0.04330   1.00
C1       0.85603    0.93337    0.10637   1.00
C1       0.07733    0.14397    0.10637   1.00
C1       0.06663    0.92267    0.10637   1.00
O1       0.66667    0.33333    0.90803   1.00
Zn      0.66667    0.33333    0.87893   1.00
Zn      0.61510    0.37620    0.91690   1.00
Zn      0.76110    0.38490    0.91690   1.00
Zn      0.62380    0.23890    0.91690   1.00
O2       0.60527    0.35943    0.86893   1.00
O2       0.75417    0.39473    0.86893   1.00
O2       0.64057    0.24583    0.86893   1.00
O2       0.57967    0.40493    0.89483   1.00
O2       0.67130    0.45360    0.93410   1.00
O2       0.54080    0.31410    0.93370   1.00
O2       0.82527    0.42033    0.89483   1.00
O2       0.77330    0.45920    0.93370   1.00
O2       0.78230    0.32870    0.93410   1.00
O2       0.59507    0.17473    0.89483   1.00
O2       0.54640    0.21770    0.93410   1.00
O2       0.68590    0.22670    0.93370   1.00
C1       0.58057    0.39353    0.87663   1.00
C1       0.81297    0.41943    0.87663   1.00
C1       0.60647    0.18703    0.87663   1.00
C1       0.73330    0.47730    0.93970   1.00
C1       0.52270    0.25600    0.93970   1.00
C1       0.74400    0.26670    0.93970   1.00
O1       0.66667    0.33333    0.25863   1.00
Zn      0.66667    0.33333    0.28773   1.00
Zn      0.70953    0.28177    0.24977   1.00
Zn      0.71823    0.42777    0.24977   1.00
Zn      0.57223    0.29047    0.24977   1.00
O2       0.69277    0.27193    0.29773   1.00
O2       0.72807    0.42083    0.29773   1.00
O2       0.57917    0.30723    0.29773   1.00
O2       0.73827    0.24633    0.27183   1.00
O2       0.78693    0.33797    0.23257   1.00
O2       0.64743    0.20747    0.23297   1.00
O2       0.75367    0.49193    0.27183   1.00
O2       0.79253    0.43997    0.23297   1.00
O2       0.66203    0.44897    0.23257   1.00
O2       0.50807    0.26173    0.27183   1.00
O2       0.55103    0.21307    0.23257   1.00
O2       0.56003    0.35257    0.23297   1.00
C1       0.72687    0.24723    0.29003   1.00
C1       0.75277    0.47963    0.29003   1.00
C1       0.52037    0.27313    0.29003   1.00
C1       0.81063    0.39997    0.22697   1.00
C1       0.58933    0.18937    0.22697   1.00
C1       0.60003    0.41067    0.22697   1.00
O1       0.66667    0.33333    0.75863   1.00
Zn      0.66667    0.33333    0.78773   1.00
Zn      0.71823    0.29047    0.74977   1.00
Zn      0.57223    0.28177    0.74977   1.00
Zn      0.70953    0.42777    0.74977   1.00
O2       0.72807    0.30723    0.79773   1.00
O2       0.57917    0.27193    0.79773   1.00
O2       0.69277    0.42083    0.79773   1.00
O2       0.75367    0.26173    0.77183   1.00
O2       0.66203    0.21307    0.73257   1.00
O2       0.79253    0.35257    0.73297   1.00
O2       0.50807    0.24633    0.77183   1.00
O2       0.56003    0.20747    0.73297   1.00
O2       0.55103    0.33797    0.73257   1.00
O2       0.73827    0.49193    0.77183   1.00
O2       0.78693    0.44897    0.73257   1.00
O2       0.64743    0.43997    0.73297   1.00
C1       0.75277    0.27313    0.79003   1.00
C1       0.52037    0.24723    0.79003   1.00
C1       0.72687    0.47963    0.79003   1.00
C1       0.60003    0.18937    0.72697   1.00
C1       0.81063    0.41067    0.72697   1.00
C1       0.58933    0.39997    0.72697   1.00
O1       0.66667    0.33333    0.40803   1.00
Zn      0.66667    0.33333    0.37893   1.00
Zn      0.62380    0.38490    0.41690   1.00
Zn      0.61510    0.23890    0.41690   1.00
Zn      0.76110    0.37620    0.41690   1.00
O2       0.64057    0.39473    0.36893   1.00
O2       0.60527    0.24583    0.36893   1.00
O2       0.75417    0.35943    0.36893   1.00
O2       0.59507    0.42033    0.39483   1.00
O2       0.54640    0.32870    0.43410   1.00
O2       0.68590    0.45920    0.43370   1.00
O2       0.57967    0.17473    0.39483   1.00
O2       0.54080    0.22670    0.43370   1.00
O2       0.67130    0.21770    0.43410   1.00
O2       0.82527    0.40493    0.39483   1.00
O2       0.78230    0.45360    0.43410   1.00
O2       0.77330    0.31410    0.43370   1.00
C1       0.60647    0.41943    0.37663   1.00
C1       0.58057    0.18703    0.37663   1.00
C1       0.81297    0.39353    0.37663   1.00
C1       0.52270    0.26670    0.43970   1.00
C1       0.74400    0.47730    0.43970   1.00
C1       0.73330    0.25600    0.43970   1.00
O1       0.33333    0.66667    0.24137   1.00
Zn      0.33333    0.66667    0.21227   1.00
Zn      0.28177    0.70953    0.25023   1.00
Zn      0.42777    0.71823    0.25023   1.00
Zn      0.29047    0.57223    0.25023   1.00
O2       0.27193    0.69277    0.20227   1.00
O2       0.42083    0.72807    0.20227   1.00
O2       0.30723    0.57917    0.20227   1.00
O2       0.24633    0.73827    0.22817   1.00
O2       0.33797    0.78693    0.26743   1.00
O2       0.20747    0.64743    0.26703   1.00
O2       0.49193    0.75367    0.22817   1.00
O2       0.43997    0.79253    0.26703   1.00
O2       0.44897    0.66203    0.26743   1.00
O2       0.26173    0.50807    0.22817   1.00
O2       0.21307    0.55103    0.26743   1.00
O2       0.35257    0.56003    0.26703   1.00
C1       0.24723    0.72687    0.20997   1.00
C1       0.47963    0.75277    0.20997   1.00
C1       0.27313    0.52037    0.20997   1.00
C1       0.39997    0.81063    0.27303   1.00
C1       0.18937    0.58933    0.27303   1.00
C1       0.41067    0.60003    0.27303   1.00
O1       0.33333    0.66667    0.59197   1.00
Zn      0.33333    0.66667    0.62107   1.00
Zn      0.37620    0.61510    0.58310   1.00
Zn      0.38490    0.76110    0.58310   1.00
Zn      0.23890    0.62380    0.58310   1.00
O2       0.35943    0.60527    0.63107   1.00
O2       0.39473    0.75417    0.63107   1.00
O2       0.24583    0.64057    0.63107   1.00
O2       0.40493    0.57967    0.60517   1.00
O2       0.45360    0.67130    0.56590   1.00
O2       0.31410    0.54080    0.56630   1.00
O2       0.42033    0.82527    0.60517   1.00
O2       0.45920    0.77330    0.56630   1.00
O2       0.32870    0.78230    0.56590   1.00
O2       0.17473    0.59507    0.60517   1.00
O2       0.21770    0.54640    0.56590   1.00
O2       0.22670    0.68590    0.56630   1.00
C1       0.39353    0.58057    0.62337   1.00
C1       0.41943    0.81297    0.62337   1.00
C1       0.18703    0.60647    0.62337   1.00
C1       0.47730    0.73330    0.56030   1.00
C1       0.25600    0.52270    0.56030   1.00
C1       0.26670    0.74400    0.56030   1.00
O1       0.33333    0.66667    0.09197   1.00
Zn      0.33333    0.66667    0.12107   1.00
Zn      0.38490    0.62380    0.08310   1.00
Zn      0.23890    0.61510    0.08310   1.00
Zn      0.37620    0.76110    0.08310   1.00
O2       0.39473    0.64057    0.13107   1.00
O2       0.24583    0.60527    0.13107   1.00
O2       0.35943    0.75417    0.13107   1.00
O2       0.42033    0.59507    0.10517   1.00
O2       0.32870    0.54640    0.06590   1.00
O2       0.45920    0.68590    0.06630   1.00
O2       0.17473    0.57967    0.10517   1.00
O2       0.22670    0.54080    0.06630   1.00
O2       0.21770    0.67130    0.06590   1.00
O2       0.40493    0.82527    0.10517   1.00
O2       0.45360    0.78230    0.06590   1.00
O2       0.31410    0.77330    0.06630   1.00
C1       0.41943    0.60647    0.12337   1.00
C1       0.18703    0.58057    0.12337   1.00
C1       0.39353    0.81297    0.12337   1.00
C1       0.26670    0.52270    0.06030   1.00
C1       0.47730    0.74400    0.06030   1.00
C1       0.25600    0.73330    0.06030   1.00
O1       0.33333    0.66667    0.74137   1.00
Zn      0.33333    0.66667    0.71227   1.00
Zn      0.29047    0.71823    0.75023   1.00
Zn      0.28177    0.57223    0.75023   1.00
Zn      0.42777    0.70953    0.75023   1.00
O2       0.30723    0.72807    0.70227   1.00
O2       0.27193    0.57917    0.70227   1.00
O2       0.42083    0.69277    0.70227   1.00
O2       0.26173    0.75367    0.72817   1.00
O2       0.21307    0.66203    0.76743   1.00
O2       0.35257    0.79253    0.76703   1.00
O2       0.24633    0.50807    0.72817   1.00
O2       0.20747    0.56003    0.76703   1.00
O2       0.33797    0.55103    0.76743   1.00
O2       0.49193    0.73827    0.72817   1.00
O2       0.44897    0.78693    0.76743   1.00
O2       0.43997    0.64743    0.76703   1.00
C1       0.27313    0.75277    0.70997   1.00
C1       0.24723    0.52037    0.70997   1.00
C1       0.47963    0.72687    0.70997   1.00
C1       0.18937    0.60003    0.77303   1.00
C1       0.41067    0.81063    0.77303   1.00
C1       0.39997    0.58933    0.77303   1.00
C2       0.77420    0.53210    0.45600   1.00
C3       0.74020    0.56170    0.46290   1.00
H1       0.69620    0.54640    0.45820   1.00
C3       0.83770    0.55400    0.46350   1.00
H1       0.86200    0.53330    0.45910   1.00
C3a      0.76750    0.61400    0.47680   1.00
H1       0.74367    0.63459    0.48169   1.00
C3b      0.86710    0.60620    0.47750   1.00
H1       0.91022    0.62027    0.48277   1.00
C6       0.83150    0.63610    0.48460   1.00
C6       0.86220    0.69140    0.49990   1.00
C3c      0.85040    0.67660    0.52040   1.00
H1       0.82756    0.63148    0.52473   1.00
C3d      0.90150    0.75790    0.49290   1.00
H1       0.90990    0.76970    0.47927   1.00
C3       0.87720    0.72980    0.53420   1.00
H1       0.87030    0.72000    0.54800   1.00
C3       0.92610    0.81040    0.50820   1.00
H1       0.95160    0.85560    0.50410   1.00
C2       0.91370    0.79640    0.52810   1.00
C2       0.46790    0.24210    0.45600   1.00
C3       0.43830    0.17850    0.46290   1.00
H1       0.45360    0.14980    0.45820   1.00
C3       0.44600    0.28370    0.46350   1.00
H1       0.46670    0.32870    0.45910   1.00
C3a      0.38600    0.15350    0.47680   1.00
H1       0.36541    0.10907    0.48169   1.00
C3b      0.39380    0.26090    0.47750   1.00
H1       0.37973    0.28994    0.48277   1.00
C6       0.36390    0.19540    0.48460   1.00
C6       0.30860    0.17080    0.49990   1.00
C3c      0.32340    0.17380    0.52040   1.00
H1       0.36852    0.19608    0.52473   1.00
C3d      0.24210    0.14360    0.49290   1.00
H1       0.23030    0.14019    0.47927   1.00
C3       0.27020    0.14740    0.53420   1.00
H1       0.28000    0.15030    0.54800   1.00
C3       0.18960    0.11570    0.50820   1.00
H1       0.14440    0.09600    0.50410   1.00
C2       0.20360    0.11730    0.52810   1.00
C2       0.75790    0.22580    0.45600   1.00
C3       0.82150    0.25980    0.46290   1.00
H1       0.85020    0.30380    0.45820   1.00
C3       0.71630    0.16230    0.46350   1.00
H1       0.67130    0.13800    0.45910   1.00
C3a      0.84650    0.23250    0.47680   1.00
H1       0.89093    0.25633    0.48169   1.00
C3b      0.73910    0.13290    0.47750   1.00
H1       0.71006    0.08978    0.48277   1.00
C6       0.80460    0.16850    0.48460   1.00
C6       0.82920    0.13780    0.49990   1.00
C3c      0.82620    0.14960    0.52040   1.00
H1       0.80392    0.17244    0.52473   1.00
C3d      0.85640    0.09850    0.49290   1.00
H1       0.85981    0.09010    0.47927   1.00
C3       0.85260    0.12280    0.53420   1.00
H1       0.84970    0.12970    0.54800   1.00
C3       0.88430    0.07390    0.50820   1.00
H1       0.90400    0.04840    0.50410   1.00
C2       0.88270    0.08630    0.52810   1.00
C2       0.53210    0.77420    0.04400   1.00
C3       0.56170    0.74020    0.03710   1.00
H1       0.54640    0.69620    0.04180   1.00
C3       0.55400    0.83770    0.03650   1.00
H1       0.53330    0.86200    0.04090   1.00
C3a      0.61400    0.76750    0.02320   1.00
H1       0.63459    0.74367    0.01831   1.00
C3b      0.60620    0.86710    0.02250   1.00
H1       0.62027    0.91022    0.01723   1.00
C6       0.63610    0.83150    0.01540   1.00
C6       0.69140    0.86220    0.00010   1.00
C3c      0.67660    0.85040    0.97960   1.00
H1       0.63148    0.82756    0.97527   1.00
C3d      0.75790    0.90150    0.00710   1.00
H1       0.76970    0.90990    0.02073   1.00
C3       0.72980    0.87720    0.96580   1.00
H1       0.72000    0.87030    0.95200   1.00
C3       0.81040    0.92610    0.99180   1.00
H1       0.85560    0.95160    0.99590   1.00
C2       0.79640    0.91370    0.97190   1.00
C2       0.24210    0.46790    0.04400   1.00
C3       0.17850    0.43830    0.03710   1.00
H1       0.14980    0.45360    0.04180   1.00
C3       0.28370    0.44600    0.03650   1.00
H1       0.32870    0.46670    0.04090   1.00
C3a      0.15350    0.38600    0.02320   1.00
H1       0.10907    0.36541    0.01831   1.00
C3b      0.26090    0.39380    0.02250   1.00
H1       0.28994    0.37973    0.01723   1.00
C6       0.19540    0.36390    0.01540   1.00
C6       0.17080    0.30860    0.00010   1.00
C3c      0.17380    0.32340    0.97960   1.00
H1       0.19608    0.36852    0.97527   1.00
C3d      0.14360    0.24210    0.00710   1.00
H1       0.14019    0.23030    0.02073   1.00
C3       0.14740    0.27020    0.96580   1.00
H1       0.15030    0.28000    0.95200   1.00
C3       0.11570    0.18960    0.99180   1.00
H1       0.09600    0.14440    0.99590   1.00
C2       0.11730    0.20360    0.97190   1.00
C2       0.22580    0.75790    0.04400   1.00
C3       0.25980    0.82150    0.03710   1.00
H1       0.30380    0.85020    0.04180   1.00
C3       0.16230    0.71630    0.03650   1.00
H1       0.13800    0.67130    0.04090   1.00
C3a      0.23250    0.84650    0.02320   1.00
H1       0.25633    0.89093    0.01831   1.00
C3b      0.13290    0.73910    0.02250   1.00
H1       0.08978    0.71006    0.01723   1.00
C6       0.16850    0.80460    0.01540   1.00
C6       0.13780    0.82920    0.00010   1.00
C3c      0.14960    0.82620    0.97960   1.00
H1       0.17244    0.80392    0.97527   1.00
C3d      0.09850    0.85640    0.00710   1.00
H1       0.09010    0.85981    0.02073   1.00
C3       0.12280    0.85260    0.96580   1.00
H1       0.12970    0.84970    0.95200   1.00
C3       0.07390    0.88430    0.99180   1.00
H1       0.04840    0.90400    0.99590   1.00
C2       0.08630    0.88270    0.97190   1.00
C2       0.22580    0.46790    0.54400   1.00
C3       0.25980    0.43830    0.53710   1.00
H1       0.30380    0.45360    0.54180   1.00
C3       0.16230    0.44600    0.53650   1.00
H1       0.13800    0.46670    0.54090   1.00
C3a      0.23250    0.38600    0.52320   1.00
H1       0.25633    0.36541    0.51831   1.00
C3b      0.13290    0.39380    0.52250   1.00
H1       0.08978    0.37973    0.51723   1.00
C6       0.16850    0.36390    0.51540   1.00
C6       0.13780    0.30860    0.50010   1.00
C3c      0.14960    0.32340    0.47960   1.00
H1       0.17244    0.36852    0.47527   1.00
C3d      0.09850    0.24210    0.50710   1.00
H1       0.09010    0.23030    0.52073   1.00
C3       0.12280    0.27020    0.46580   1.00
H1       0.12970    0.28000    0.45200   1.00
C3       0.07390    0.18960    0.49180   1.00
H1       0.04840    0.14440    0.49590   1.00
C2       0.08630    0.20360    0.47190   1.00
C2       0.53210    0.75790    0.54400   1.00
C3       0.56170    0.82150    0.53710   1.00
H1       0.54640    0.85020    0.54180   1.00
C3       0.55400    0.71630    0.53650   1.00
H1       0.53330    0.67130    0.54090   1.00
C3a      0.61400    0.84650    0.52320   1.00
H1       0.63459    0.89093    0.51831   1.00
C3b      0.60620    0.73910    0.52250   1.00
H1       0.62027    0.71006    0.51723   1.00
C6       0.63610    0.80460    0.51540   1.00
C6       0.69140    0.82920    0.50010   1.00
C3c      0.67660    0.82620    0.47960   1.00
H1       0.63148    0.80392    0.47527   1.00
C3d      0.75790    0.85640    0.50710   1.00
H1       0.76970    0.85981    0.52073   1.00
C3       0.72980    0.85260    0.46580   1.00
H1       0.72000    0.84970    0.45200   1.00
C3       0.81040    0.88430    0.49180   1.00
H1       0.85560    0.90400    0.49590   1.00
C2       0.79640    0.88270    0.47190   1.00
C2       0.24210    0.77420    0.54400   1.00
C3       0.17850    0.74020    0.53710   1.00
H1       0.14980    0.69620    0.54180   1.00
C3       0.28370    0.83770    0.53650   1.00
H1       0.32870    0.86200    0.54090   1.00
C3a      0.15350    0.76750    0.52320   1.00
H1       0.10907    0.74367    0.51831   1.00
C3b      0.26090    0.86710    0.52250   1.00
H1       0.28994    0.91022    0.51723   1.00
C6       0.19540    0.83150    0.51540   1.00
C6       0.17080    0.86220    0.50010   1.00
C3c      0.17380    0.85040    0.47960   1.00
H1       0.19608    0.82756    0.47527   1.00
C3d      0.14360    0.90150    0.50710   1.00
H1       0.14019    0.90990    0.52073   1.00
C3       0.14740    0.87720    0.46580   1.00
H1       0.15030    0.87030    0.45200   1.00
C3       0.11570    0.92610    0.49180   1.00
H1       0.09600    0.95160    0.49590   1.00
C2       0.11730    0.91370    0.47190   1.00
C2       0.46790    0.22580    0.95600   1.00
C3       0.43830    0.25980    0.96290   1.00
H1       0.45360    0.30380    0.95820   1.00
C3       0.44600    0.16230    0.96350   1.00
H1       0.46670    0.13800    0.95910   1.00
C3a      0.38600    0.23250    0.97680   1.00
H1       0.36541    0.25633    0.98169   1.00
C3b      0.39380    0.13290    0.97750   1.00
H1       0.37973    0.08978    0.98277   1.00
C6       0.36390    0.16850    0.98460   1.00
C6       0.30860    0.13780    0.99990   1.00
C3c      0.32340    0.14960    0.02040   1.00
H1       0.36852    0.17244    0.02473   1.00
C3d      0.24210    0.09850    0.99290   1.00
H1       0.23030    0.09010    0.97927   1.00
C3       0.27020    0.12280    0.03420   1.00
H1       0.28000    0.12970    0.04800   1.00
C3       0.18960    0.07390    0.00820   1.00
H1       0.14440    0.04840    0.00410   1.00
C2       0.20360    0.08630    0.02810   1.00
C2       0.75790    0.53210    0.95600   1.00
C3       0.82150    0.56170    0.96290   1.00
H1       0.85020    0.54640    0.95820   1.00
C3       0.71630    0.55400    0.96350   1.00
H1       0.67130    0.53330    0.95910   1.00
C3a      0.84650    0.61400    0.97680   1.00
H1       0.89093    0.63459    0.98169   1.00
C3b      0.73910    0.60620    0.97750   1.00
H1       0.71006    0.62027    0.98277   1.00
C6       0.80460    0.63610    0.98460   1.00
C6       0.82920    0.69140    0.99990   1.00
C3c      0.82620    0.67660    0.02040   1.00
H1       0.80392    0.63148    0.02473   1.00
C3d      0.85640    0.75790    0.99290   1.00
H1       0.85981    0.76970    0.97927   1.00
C3       0.85260    0.72980    0.03420   1.00
H1       0.84970    0.72000    0.04800   1.00
C3       0.88430    0.81040    0.00820   1.00
H1       0.90400    0.85560    0.00410   1.00
C2       0.88270    0.79640    0.02810   1.00
C2       0.77420    0.24210    0.95600   1.00
C3       0.74020    0.17850    0.96290   1.00
H1       0.69620    0.14980    0.95820   1.00
C3       0.83770    0.28370    0.96350   1.00
H1       0.86200    0.32870    0.95910   1.00
C3a      0.76750    0.15350    0.97680   1.00
H1       0.74367    0.10907    0.98169   1.00
C3b      0.86710    0.26090    0.97750   1.00
H1       0.91022    0.28994    0.98277   1.00
C6       0.83150    0.19540    0.98460   1.00
C6       0.86220    0.17080    0.99990   1.00
C3c      0.85040    0.17380    0.02040   1.00
H1       0.82756    0.19608    0.02473   1.00
C3d      0.90150    0.14360    0.99290   1.00
H1       0.90990    0.14019    0.97927   1.00
C3       0.87720    0.14740    0.03420   1.00
H1       0.87030    0.15030    0.04800   1.00
C3       0.92610    0.11570    0.00820   1.00
H1       0.95160    0.09600    0.00410   1.00
C2       0.91370    0.11730    0.02810   1.00
C2       0.44087    0.86543    0.78933   1.00
C3       0.40687    0.89503    0.79623   1.00
H1       0.36287    0.87973    0.79153   1.00
C3       0.50437    0.88733    0.79683   1.00
H1       0.52867    0.86663    0.79243   1.00
C3a      0.43417    0.94733    0.81013   1.00
H1       0.41034    0.96792    0.81502   1.00
C3b      0.53377    0.93953    0.81083   1.00
H1       0.57689    0.95360    0.81610   1.00
C6       0.49817    0.96943    0.81793   1.00
C6       0.52887    0.02473    0.83323   1.00
C3c      0.51707    0.00993    0.85373   1.00
H1       0.49423    -0.03519   0.85806   1.00
C3d      0.56817    0.09123    0.82623   1.00
H1       0.57657    0.10303    0.81260   1.00
C3       0.54387    0.06313    0.86753   1.00
H1       0.53697    0.05333    0.88133   1.00
C3       0.59277    0.14373    0.84153   1.00
H1       0.61827    0.18893    0.83743   1.00
C2       0.58037    0.12973    0.86143   1.00
C2       0.13457    0.57543    0.78933   1.00
C3       0.10497    0.51183    0.79623   1.00
H1       0.12027    0.48313    0.79153   1.00
C3       0.11267    0.61703    0.79683   1.00
H1       0.13337    0.66203    0.79243   1.00
C3a      0.05267    0.48683    0.81013   1.00
H1       0.03208    0.44240    0.81502   1.00
C3b      0.06047    0.59423    0.81083   1.00
H1       0.04640    0.62327    0.81610   1.00
C6       0.03057    0.52873    0.81793   1.00
C6       0.97527    0.50413    0.83323   1.00
C3c      0.99007    0.50713    0.85373   1.00
H1       1.03519    0.52941    0.85806   1.00
C3d      0.90877    0.47693    0.82623   1.00
H1       0.89697    0.47352    0.81260   1.00
C3       0.93687    0.48073    0.86753   1.00
H1       0.94667    0.48363    0.88133   1.00
C3       0.85627    0.44903    0.84153   1.00
H1       0.81107    0.42933    0.83743   1.00
C2       0.87027    0.45063    0.86143   1.00
C2       0.42457    0.55913    0.78933   1.00
C3       0.48817    0.59313    0.79623   1.00
H1       0.51687    0.63713    0.79153   1.00
C3       0.38297    0.49563    0.79683   1.00
H1       0.33797    0.47133    0.79243   1.00
C3a      0.51317    0.56583    0.81013   1.00
H1       0.55760    0.58966    0.81502   1.00
C3b      0.40577    0.46623    0.81083   1.00
H1       0.37673    0.42311    0.81610   1.00
C6       0.47127    0.50183    0.81793   1.00
C6       0.49587    0.47113    0.83323   1.00
C3c      0.49287    0.48293    0.85373   1.00
H1       0.47059    0.50577    0.85806   1.00
C3d      0.52307    0.43183    0.82623   1.00
H1       0.52648    0.42343    0.81260   1.00
C3       0.51927    0.45613    0.86753   1.00
H1       0.51637    0.46303    0.88133   1.00
C3       0.55097    0.40723    0.84153   1.00
H1       0.57067    0.38173    0.83743   1.00
C2       0.54937    0.41963    0.86143   1.00
C2       0.19877    0.10753    0.37733   1.00
C3       0.22837    0.07353    0.37043   1.00
H1       0.21307    0.02953    0.37513   1.00
C3       0.22067    0.17103    0.36983   1.00
H1       0.19997    0.19533    0.37423   1.00
C3a      0.28067    0.10083    0.35653   1.00
H1       0.30126    0.07700    0.35164   1.00
C3b      0.27287    0.20043    0.35583   1.00
H1       0.28694    0.24355    0.35056   1.00
C6       0.30277    0.16483    0.34873   1.00
C6       0.35807    0.19553    0.33343   1.00
C3c      0.34327    0.18373    0.31293   1.00
H1       0.29815    0.16089    0.30860   1.00
C3d      0.42457    0.23483    0.34043   1.00
H1       0.43637    0.24323    0.35406   1.00
C3       0.39647    0.21053    0.29913   1.00
H1       0.38667    0.20363    0.28533   1.00
C3       0.47707    0.25943    0.32513   1.00
H1       0.52227    0.28493    0.32923   1.00
C2       0.46307    0.24703    0.30523   1.00
C2       0.90877    0.80123    0.37733   1.00
C3       0.84517    0.77163    0.37043   1.00
H1       0.81647    0.78693    0.37513   1.00
C3       0.95037    0.77933    0.36983   1.00
H1       0.99537    0.80003    0.37423   1.00
C3a      0.82017    0.71933    0.35653   1.00
H1       0.77574    0.69874    0.35164   1.00
C3b      0.92757    0.72713    0.35583   1.00
H1       0.95661    0.71306    0.35056   1.00
C6       0.86207    0.69723    0.34873   1.00
C6       0.83747    0.64193    0.33343   1.00
C3c      0.84047    0.65673    0.31293   1.00
H1       0.86275    0.70185    0.30860   1.00
C3d      0.81027    0.57543    0.34043   1.00
H1       0.80686    0.56363    0.35406   1.00
C3       0.81407    0.60353    0.29913   1.00
H1       0.81697    0.61333    0.28533   1.00
C3       0.78237    0.52293    0.32513   1.00
H1       0.76267    0.47773    0.32923   1.00
C2       0.78397    0.53693    0.30523   1.00
C2       0.89247    0.09123    0.37733   1.00
C3       0.92647    0.15483    0.37043   1.00
H1       0.97047    0.18353    0.37513   1.00
C3       0.82897    0.04963    0.36983   1.00
H1       0.80467    0.00463    0.37423   1.00
C3a      0.89917    0.17983    0.35653   1.00
H1       0.92300    0.22426    0.35164   1.00
C3b      0.79957    0.07243    0.35583   1.00
H1       0.75645    0.04339    0.35056   1.00
C6       0.83517    0.13793    0.34873   1.00
C6       0.80447    0.16253    0.33343   1.00
C3c      0.81627    0.15953    0.31293   1.00
H1       0.83911    0.13725    0.30860   1.00
C3d      0.76517    0.18973    0.34043   1.00
H1       0.75677    0.19314    0.35406   1.00
C3       0.78947    0.18593    0.29913   1.00
H1       0.79637    0.18303    0.28533   1.00
C3       0.74057    0.21763    0.32513   1.00
H1       0.71507    0.23733    0.32923   1.00
C2       0.75297    0.21603    0.30523   1.00
C2       0.89247    0.80123    0.87733   1.00
C3       0.92647    0.77163    0.87043   1.00
H1       0.97047    0.78693    0.87513   1.00
C3       0.82897    0.77933    0.86983   1.00
H1       0.80467    0.80003    0.87423   1.00
C3a      0.89917    0.71933    0.85653   1.00
H1       0.92300    0.69874    0.85164   1.00
C3b      0.79957    0.72713    0.85583   1.00
H1       0.75645    0.71306    0.85056   1.00
C6       0.83517    0.69723    0.84873   1.00
C6       0.80447    0.64193    0.83343   1.00
C3c      0.81627    0.65673    0.81293   1.00
H1       0.83911    0.70185    0.80860   1.00
C3d      0.76517    0.57543    0.84043   1.00
H1       0.75677    0.56363    0.85406   1.00
C3       0.78947    0.60353    0.79913   1.00
H1       0.79637    0.61333    0.78533   1.00
C3       0.74057    0.52293    0.82513   1.00
H1       0.71507    0.47773    0.82923   1.00
C2       0.75297    0.53693    0.80523   1.00
C2       0.19877    0.09123    0.87733   1.00
C3       0.22837    0.15483    0.87043   1.00
H1       0.21307    0.18353    0.87513   1.00
C3       0.22067    0.04963    0.86983   1.00
H1       0.19997    0.00463    0.87423   1.00
C3a      0.28067    0.17983    0.85653   1.00
H1       0.30126    0.22426    0.85164   1.00
C3b      0.27287    0.07243    0.85583   1.00
H1       0.28694    0.04339    0.85056   1.00
C6       0.30277    0.13793    0.84873   1.00
C6       0.35807    0.16253    0.83343   1.00
C3c      0.34327    0.15953    0.81293   1.00
H1       0.29815    0.13725    0.80860   1.00
C3d      0.42457    0.18973    0.84043   1.00
H1       0.43637    0.19314    0.85406   1.00
C3       0.39647    0.18593    0.79913   1.00
H1       0.38667    0.18303    0.78533   1.00
C3       0.47707    0.21763    0.82513   1.00
H1       0.52227    0.23733    0.82923   1.00
C2       0.46307    0.21603    0.80523   1.00
C2       0.90877    0.10753    0.87733   1.00
C3       0.84517    0.07353    0.87043   1.00
H1       0.81647    0.02953    0.87513   1.00
C3       0.95037    0.17103    0.86983   1.00
H1       0.99537    0.19533    0.87423   1.00
C3a      0.82017    0.10083    0.85653   1.00
H1       0.77574    0.07700    0.85164   1.00
C3b      0.92757    0.20043    0.85583   1.00
H1       0.95661    0.24355    0.85056   1.00
C6       0.86207    0.16483    0.84873   1.00
C6       0.83747    0.19553    0.83343   1.00
C3c      0.84047    0.18373    0.81293   1.00
H1       0.86275    0.16089    0.80860   1.00
C3d      0.81027    0.23483    0.84043   1.00
H1       0.80686    0.24323    0.85406   1.00
C3       0.81407    0.21053    0.79913   1.00
H1       0.81697    0.20363    0.78533   1.00
C3       0.78237    0.25943    0.82513   1.00
H1       0.76267    0.28493    0.82923   1.00
C2       0.78397    0.24703    0.80523   1.00
C2       0.13457    0.55913    0.28933   1.00
C3       0.10497    0.59313    0.29623   1.00
H1       0.12027    0.63713    0.29153   1.00
C3       0.11267    0.49563    0.29683   1.00
H1       0.13337    0.47133    0.29243   1.00
C3a      0.05267    0.56583    0.31013   1.00
H1       0.03208    0.58966    0.31502   1.00
C3b      0.06047    0.46623    0.31083   1.00
H1       0.04640    0.42311    0.31610   1.00
C6       0.03057    0.50183    0.31793   1.00
C6       0.97527    0.47113    0.33323   1.00
C3c      0.99007    0.48293    0.35373   1.00
H1       1.03519    0.50577    0.35806   1.00
C3d      0.90877    0.43183    0.32623   1.00
H1       0.89697    0.42343    0.31260   1.00
C3       0.93687    0.45613    0.36753   1.00
H1       0.94667    0.46303    0.38133   1.00
C3       0.85627    0.40723    0.34153   1.00
H1       0.81107    0.38173    0.33743   1.00
C2       0.87027    0.41963    0.36143   1.00
C2       0.42457    0.86543    0.28933   1.00
C3       0.48817    0.89503    0.29623   1.00
H1       0.51687    0.87973    0.29153   1.00
C3       0.38297    0.88733    0.29683   1.00
H1       0.33797    0.86663    0.29243   1.00
C3a      0.51317    0.94733    0.31013   1.00
H1       0.55760    0.96792    0.31502   1.00
C3b      0.40577    0.93953    0.31083   1.00
H1       0.37673    0.95360    0.31610   1.00
C6       0.47127    0.96943    0.31793   1.00
C6       0.49587    0.02473    0.33323   1.00
C3c      0.49287    0.00993    0.35373   1.00
H1       0.47059    -0.03519   0.35806   1.00
C3d      0.52307    0.09123    0.32623   1.00
H1       0.52648    0.10303    0.31260   1.00
C3       0.51927    0.06313    0.36753   1.00
H1       0.51637    0.05333    0.38133   1.00
C3       0.55097    0.14373    0.34153   1.00
H1       0.57067    0.18893    0.33743   1.00
C2       0.54937    0.12973    0.36143   1.00
C2       0.44087    0.57543    0.28933   1.00
C3       0.40687    0.51183    0.29623   1.00
H1       0.36287    0.48313    0.29153   1.00
C3       0.50437    0.61703    0.29683   1.00
H1       0.52867    0.66203    0.29243   1.00
C3a      0.43417    0.48683    0.31013   1.00
H1       0.41034    0.44240    0.31502   1.00
C3b      0.53377    0.59423    0.31083   1.00
H1       0.57689    0.62327    0.31610   1.00
C6       0.49817    0.52873    0.31793   1.00
C6       0.52887    0.50413    0.33323   1.00
C3c      0.51707    0.50713    0.35373   1.00
H1       0.49423    0.52941    0.35806   1.00
C3d      0.56817    0.47693    0.32623   1.00
H1       0.57657    0.47352    0.31260   1.00
C3       0.54387    0.48073    0.36753   1.00
H1       0.53697    0.48363    0.38133   1.00
C3       0.59277    0.44903    0.34153   1.00
H1       0.61827    0.42933    0.33743   1.00
C2       0.58037    0.45063    0.36143   1.00
C2       0.10753    0.19877    0.12267   1.00
C3       0.07353    0.22837    0.12957   1.00
H1       0.02953    0.21307    0.12487   1.00
C3       0.17103    0.22067    0.13017   1.00
H1       0.19533    0.19997    0.12577   1.00
C3a      0.10083    0.28067    0.14347   1.00
H1       0.07700    0.30126    0.14836   1.00
C3b      0.20043    0.27287    0.14417   1.00
H1       0.24355    0.28694    0.14944   1.00
C6       0.16483    0.30277    0.15127   1.00
C6       0.19553    0.35807    0.16657   1.00
C3c      0.18373    0.34327    0.18707   1.00
H1       0.16089    0.29815    0.19140   1.00
C3d      0.23483    0.42457    0.15957   1.00
H1       0.24323    0.43637    0.14594   1.00
C3       0.21053    0.39647    0.20087   1.00
H1       0.20363    0.38667    0.21467   1.00
C3       0.25943    0.47707    0.17487   1.00
H1       0.28493    0.52227    0.17077   1.00
C2       0.24703    0.46307    0.19477   1.00
C2       0.80123    0.90877    0.12267   1.00
C3       0.77163    0.84517    0.12957   1.00
H1       0.78693    0.81647    0.12487   1.00
C3       0.77933    0.95037    0.13017   1.00
H1       0.80003    0.99537    0.12577   1.00
C3a      0.71933    0.82017    0.14347   1.00
H1       0.69874    0.77574    0.14836   1.00
C3b      0.72713    0.92757    0.14417   1.00
H1       0.71306    0.95661    0.14944   1.00
C6       0.69723    0.86207    0.15127   1.00
C6       0.64193    0.83747    0.16657   1.00
C3c      0.65673    0.84047    0.18707   1.00
H1       0.70185    0.86275    0.19140   1.00
C3d      0.57543    0.81027    0.15957   1.00
H1       0.56363    0.80686    0.14594   1.00
C3       0.60353    0.81407    0.20087   1.00
H1       0.61333    0.81697    0.21467   1.00
C3       0.52293    0.78237    0.17487   1.00
H1       0.47773    0.76267    0.17077   1.00
C2       0.53693    0.78397    0.19477   1.00
C2       0.09123    0.89247    0.12267   1.00
C3       0.15483    0.92647    0.12957   1.00
H1       0.18353    0.97047    0.12487   1.00
C3       0.04963    0.82897    0.13017   1.00
H1       0.00463    0.80467    0.12577   1.00
C3a      0.17983    0.89917    0.14347   1.00
H1       0.22426    0.92300    0.14836   1.00
C3b      0.07243    0.79957    0.14417   1.00
H1       0.04339    0.75645    0.14944   1.00
C6       0.13793    0.83517    0.15127   1.00
C6       0.16253    0.80447    0.16657   1.00
C3c      0.15953    0.81627    0.18707   1.00
H1       0.13725    0.83911    0.19140   1.00
C3d      0.18973    0.76517    0.15957   1.00
H1       0.19314    0.75677    0.14594   1.00
C3       0.18593    0.78947    0.20087   1.00
H1       0.18303    0.79637    0.21467   1.00
C3       0.21763    0.74057    0.17487   1.00
H1       0.23733    0.71507    0.17077   1.00
C2       0.21603    0.75297    0.19477   1.00
C2       0.86543    0.44087    0.71067   1.00
C3       0.89503    0.40687    0.70377   1.00
H1       0.87973    0.36287    0.70847   1.00
C3       0.88733    0.50437    0.70317   1.00
H1       0.86663    0.52867    0.70757   1.00
C3a      0.94733    0.43417    0.68987   1.00
H1       0.96792    0.41034    0.68498   1.00
C3b      0.93953    0.53377    0.68917   1.00
H1       0.95360    0.57689    0.68390   1.00
C6       0.96943    0.49817    0.68207   1.00
C6       0.02473    0.52887    0.66677   1.00
C3c      0.00993    0.51707    0.64627   1.00
H1       -0.03519   0.49423    0.64194   1.00
C3d      0.09123    0.56817    0.67377   1.00
H1       0.10303    0.57657    0.68740   1.00
C3       0.06313    0.54387    0.63247   1.00
H1       0.05333    0.53697    0.61867   1.00
C3       0.14373    0.59277    0.65847   1.00
H1       0.18893    0.61827    0.66257   1.00
C2       0.12973    0.58037    0.63857   1.00
C2       0.57543    0.13457    0.71067   1.00
C3       0.51183    0.10497    0.70377   1.00
H1       0.48313    0.12027    0.70847   1.00
C3       0.61703    0.11267    0.70317   1.00
H1       0.66203    0.13337    0.70757   1.00
C3a      0.48683    0.05267    0.68987   1.00
H1       0.44240    0.03208    0.68498   1.00
C3b      0.59423    0.06047    0.68917   1.00
H1       0.62327    0.04640    0.68390   1.00
C6       0.52873    0.03057    0.68207   1.00
C6       0.50413    0.97527    0.66677   1.00
C3c      0.50713    0.99007    0.64627   1.00
H1       0.52941    1.03519    0.64194   1.00
C3d      0.47693    0.90877    0.67377   1.00
H1       0.47352    0.89697    0.68740   1.00
C3       0.48073    0.93687    0.63247   1.00
H1       0.48363    0.94667    0.61867   1.00
C3       0.44903    0.85627    0.65847   1.00
H1       0.42933    0.81107    0.66257   1.00
C2       0.45063    0.87027    0.63857   1.00
C2       0.55913    0.42457    0.71067   1.00
C3       0.59313    0.48817    0.70377   1.00
H1       0.63713    0.51687    0.70847   1.00
C3       0.49563    0.38297    0.70317   1.00
H1       0.47133    0.33797    0.70757   1.00
C3a      0.56583    0.51317    0.68987   1.00
H1       0.58966    0.55760    0.68498   1.00
C3b      0.46623    0.40577    0.68917   1.00
H1       0.42311    0.37673    0.68390   1.00
C6       0.50183    0.47127    0.68207   1.00
C6       0.47113    0.49587    0.66677   1.00
C3c      0.48293    0.49287    0.64627   1.00
H1       0.50577    0.47059    0.64194   1.00
C3d      0.43183    0.52307    0.67377   1.00
H1       0.42343    0.52648    0.68740   1.00
C3       0.45613    0.51927    0.63247   1.00
H1       0.46303    0.51637    0.61867   1.00
C3       0.40723    0.55097    0.65847   1.00
H1       0.38173    0.57067    0.66257   1.00
C2       0.41963    0.54937    0.63857   1.00
C2       0.55913    0.13457    0.21067   1.00
C3       0.59313    0.10497    0.20377   1.00
H1       0.63713    0.12027    0.20847   1.00
C3       0.49563    0.11267    0.20317   1.00
H1       0.47133    0.13337    0.20757   1.00
C3a      0.56583    0.05267    0.18987   1.00
H1       0.58966    0.03208    0.18498   1.00
C3b      0.46623    0.06047    0.18917   1.00
H1       0.42311    0.04640    0.18390   1.00
C6       0.50183    0.03057    0.18207   1.00
C6       0.47113    0.97527    0.16677   1.00
C3c      0.48293    0.99007    0.14627   1.00
H1       0.50577    1.03519    0.14194   1.00
C3d      0.43183    0.90877    0.17377   1.00
H1       0.42343    0.89697    0.18740   1.00
C3       0.45613    0.93687    0.13247   1.00
H1       0.46303    0.94667    0.11867   1.00
C3       0.40723    0.85627    0.15847   1.00
H1       0.38173    0.81107    0.16257   1.00
C2       0.41963    0.87027    0.13857   1.00
C2       0.86543    0.42457    0.21067   1.00
C3       0.89503    0.48817    0.20377   1.00
H1       0.87973    0.51687    0.20847   1.00
C3       0.88733    0.38297    0.20317   1.00
H1       0.86663    0.33797    0.20757   1.00
C3a      0.94733    0.51317    0.18987   1.00
H1       0.96792    0.55760    0.18498   1.00
C3b      0.93953    0.40577    0.18917   1.00
H1       0.95360    0.37673    0.18390   1.00
C6       0.96943    0.47127    0.18207   1.00
C6       0.02473    0.49587    0.16677   1.00
C3c      0.00993    0.49287    0.14627   1.00
H1       -0.03519   0.47059    0.14194   1.00
C3d      0.09123    0.52307    0.17377   1.00
H1       0.10303    0.52648    0.18740   1.00
C3       0.06313    0.51927    0.13247   1.00
H1       0.05333    0.51637    0.11867   1.00
C3       0.14373    0.55097    0.15847   1.00
H1       0.18893    0.57067    0.16257   1.00
C2       0.12973    0.54937    0.13857   1.00
C2       0.57543    0.44087    0.21067   1.00
C3       0.51183    0.40687    0.20377   1.00
H1       0.48313    0.36287    0.20847   1.00
C3       0.61703    0.50437    0.20317   1.00
H1       0.66203    0.52867    0.20757   1.00
C3a      0.48683    0.43417    0.18987   1.00
H1       0.44240    0.41034    0.18498   1.00
C3b      0.59423    0.53377    0.18917   1.00
H1       0.62327    0.57689    0.18390   1.00
C6       0.52873    0.49817    0.18207   1.00
C6       0.50413    0.52887    0.16677   1.00
C3c      0.50713    0.51707    0.14627   1.00
H1       0.52941    0.49423    0.14194   1.00
C3d      0.47693    0.56817    0.17377   1.00
H1       0.47352    0.57657    0.18740   1.00
C3       0.48073    0.54387    0.13247   1.00
H1       0.48363    0.53697    0.11867   1.00
C3       0.44903    0.59277    0.15847   1.00
H1       0.42933    0.61827    0.16257   1.00
C2       0.45063    0.58037    0.13857   1.00
C2       0.80123    0.89247    0.62267   1.00
C3       0.77163    0.92647    0.62957   1.00
H1       0.78693    0.97047    0.62487   1.00
C3       0.77933    0.82897    0.63017   1.00
H1       0.80003    0.80467    0.62577   1.00
C3a      0.71933    0.89917    0.64347   1.00
H1       0.69874    0.92300    0.64836   1.00
C3b      0.72713    0.79957    0.64417   1.00
H1       0.71306    0.75645    0.64944   1.00
C6       0.69723    0.83517    0.65127   1.00
C6       0.64193    0.80447    0.66657   1.00
C3c      0.65673    0.81627    0.68707   1.00
H1       0.70185    0.83911    0.69140   1.00
C3d      0.57543    0.76517    0.65957   1.00
H1       0.56363    0.75677    0.64594   1.00
C3       0.60353    0.78947    0.70087   1.00
H1       0.61333    0.79637    0.71467   1.00
C3       0.52293    0.74057    0.67487   1.00
H1       0.47773    0.71507    0.67077   1.00
C2       0.53693    0.75297    0.69477   1.00
C2       0.09123    0.19877    0.62267   1.00
C3       0.15483    0.22837    0.62957   1.00
H1       0.18353    0.21307    0.62487   1.00
C3       0.04963    0.22067    0.63017   1.00
H1       0.00463    0.19997    0.62577   1.00
C3a      0.17983    0.28067    0.64347   1.00
H1       0.22426    0.30126    0.64836   1.00
C3b      0.07243    0.27287    0.64417   1.00
H1       0.04339    0.28694    0.64944   1.00
C6       0.13793    0.30277    0.65127   1.00
C6       0.16253    0.35807    0.66657   1.00
C3c      0.15953    0.34327    0.68707   1.00
H1       0.13725    0.29815    0.69140   1.00
C3d      0.18973    0.42457    0.65957   1.00
H1       0.19314    0.43637    0.64594   1.00
C3       0.18593    0.39647    0.70087   1.00
H1       0.18303    0.38667    0.71467   1.00
C3       0.21763    0.47707    0.67487   1.00
H1       0.23733    0.52227    0.67077   1.00
C2       0.21603    0.46307    0.69477   1.00
C2       0.10753    0.90877    0.62267   1.00
C3       0.07353    0.84517    0.62957   1.00
H1       0.02953    0.81647    0.62487   1.00
C3       0.17103    0.95037    0.63017   1.00
H1       0.19533    0.99537    0.62577   1.00
C3a      0.10083    0.82017    0.64347   1.00
H1       0.07700    0.77574    0.64836   1.00
C3b      0.20043    0.92757    0.64417   1.00
H1       0.24355    0.95661    0.64944   1.00
C6       0.16483    0.86207    0.65127   1.00
C6       0.19553    0.83747    0.66657   1.00
C3c      0.18373    0.84047    0.68707   1.00
H1       0.16089    0.86275    0.69140   1.00
C3d      0.23483    0.81027    0.65957   1.00
H1       0.24323    0.80686    0.64594   1.00
C3       0.21053    0.81407    0.70087   1.00
H1       0.20363    0.81697    0.71467   1.00
C3       0.25943    0.78237    0.67487   1.00
H1       0.28493    0.76267    0.67077   1.00
C2       0.24703    0.78397    0.69477   1.00
