data_IRMOF10_interpen_symm_ligand4cp_label_i_1.

_audit_creation_method             'generated by an auxiliary program of Tobunporous'

_symmetry_space_group_name_H-M     'P 1'
_symmetry_Int_Tables_number        1
_symmetry_cell_setting             triclinic

_cell_length_a                    22.6523
_cell_length_b                    22.6523
_cell_length_c                    65.9502
_cell_angle_alpha                 90.0000
_cell_angle_beta                  90.0000
_cell_angle_gamma                 120.0000

loop_
_atom_site_label
_atom_site_fract_x
_atom_site_fract_y
_atom_site_fract_z
_atom_site_occupancy
O1       0.00000    0.00000    0.57470   1.00
Zn1      0.00000    0.00000    0.54560   1.00
Zn1      0.94843    0.04287    0.58357   1.00
Zn1      0.09443    0.05157    0.58357   1.00
Zn1      0.95713    0.90557    0.58357   1.00
O2       0.93860    0.02610    0.53560   1.00
O2       0.08750    0.06140    0.53560   1.00
O2       0.97390    0.91250    0.53560   1.00
O2       0.91300    0.07160    0.56150   1.00
O2       0.00463    0.12027    0.60077   1.00
O2       0.87413    0.98077    0.60037   1.00
O2       0.15860    0.08700    0.56150   1.00
O2       0.10663    0.12587    0.60037   1.00
O2       0.11563    0.99537    0.60077   1.00
O2       0.92840    0.84140    0.56150   1.00
O2       0.87973    0.88437    0.60077   1.00
O2       0.01923    0.89337    0.60037   1.00
C1       0.91390    0.06020    0.54330   1.00
C1       0.14630    0.08610    0.54330   1.00
C1       0.93980    0.85370    0.54330   1.00
C1       0.06663    0.14397    0.60637   1.00
C1       0.85603    0.92267    0.60637   1.00
C1       0.07733    0.93337    0.60637   1.00
O1       0.00000    0.00000    0.92530   1.00
Zn1      0.00000    0.00000    0.95440   1.00
Zn1      0.04287    0.94843    0.91643   1.00
Zn1      0.05157    0.09443    0.91643   1.00
Zn1      0.90557    0.95713    0.91643   1.00
O2       0.02610    0.93860    0.96440   1.00
O2       0.06140    0.08750    0.96440   1.00
O2       0.91250    0.97390    0.96440   1.00
O2       0.07160    0.91300    0.93850   1.00
O2       0.12027    0.00463    0.89923   1.00
O2       0.98077    0.87413    0.89963   1.00
O2       0.08700    0.15860    0.93850   1.00
O2       0.12587    0.10663    0.89963   1.00
O2       0.99537    0.11563    0.89923   1.00
O2       0.84140    0.92840    0.93850   1.00
O2       0.88437    0.87973    0.89923   1.00
O2       0.89337    0.01923    0.89963   1.00
C1       0.06020    0.91390    0.95670   1.00
C1       0.08610    0.14630    0.95670   1.00
C1       0.85370    0.93980    0.95670   1.00
C1       0.14397    0.06663    0.89363   1.00
C1       0.92267    0.85603    0.89363   1.00
C1       0.93337    0.07733    0.89363   1.00
O1       0.00000    0.00000    0.42530   1.00
Zn1      0.00000    0.00000    0.45440   1.00
Zn1      0.05157    0.95713    0.41643   1.00
Zn1      0.90557    0.94843    0.41643   1.00
Zn1      0.04287    0.09443    0.41643   1.00
O2       0.06140    0.97390    0.46440   1.00
O2       0.91250    0.93860    0.46440   1.00
O2       0.02610    0.08750    0.46440   1.00
O2       0.08700    0.92840    0.43850   1.00
O2       0.99537    0.87973    0.39923   1.00
O2       0.12587    0.01923    0.39963   1.00
O2       0.84140    0.91300    0.43850   1.00
O2       0.89337    0.87413    0.39963   1.00
O2       0.88437    0.00463    0.39923   1.00
O2       0.07160    0.15860    0.43850   1.00
O2       0.12027    0.11563    0.39923   1.00
O2       0.98077    0.10663    0.39963   1.00
C1       0.08610    0.93980    0.45670   1.00
C1       0.85370    0.91390    0.45670   1.00
C1       0.06020    0.14630    0.45670   1.00
C1       0.93337    0.85603    0.39363   1.00
C1       0.14397    0.07733    0.39363   1.00
C1       0.92267    0.06663    0.39363   1.00
O1       0.00000    0.00000    0.07470   1.00
Zn1      0.00000    0.00000    0.04560   1.00
Zn1      0.95713    0.05157    0.08357   1.00
Zn1      0.94843    0.90557    0.08357   1.00
Zn1      0.09443    0.04287    0.08357   1.00
O2       0.97390    0.06140    0.03560   1.00
O2       0.93860    0.91250    0.03560   1.00
O2       0.08750    0.02610    0.03560   1.00
O2       0.92840    0.08700    0.06150   1.00
O2       0.87973    0.99537    0.10077   1.00
O2       0.01923    0.12587    0.10037   1.00
O2       0.91300    0.84140    0.06150   1.00
O2       0.87413    0.89337    0.10037   1.00
O2       0.00463    0.88437    0.10077   1.00
O2       0.15860    0.07160    0.06150   1.00
O2       0.11563    0.12027    0.10077   1.00
O2       0.10663    0.98077    0.10037   1.00
C1       0.93980    0.08610    0.04330   1.00
C1       0.91390    0.85370    0.04330   1.00
C1       0.14630    0.06020    0.04330   1.00
C1       0.85603    0.93337    0.10637   1.00
C1       0.07733    0.14397    0.10637   1.00
C1       0.06663    0.92267    0.10637   1.00
O1       0.66667    0.33333    0.90803   1.00
Zn1      0.66667    0.33333    0.87893   1.00
Zn1      0.61510    0.37620    0.91690   1.00
Zn1      0.76110    0.38490    0.91690   1.00
Zn1      0.62380    0.23890    0.91690   1.00
O2       0.60527    0.35943    0.86893   1.00
O2       0.75417    0.39473    0.86893   1.00
O2       0.64057    0.24583    0.86893   1.00
O2       0.57967    0.40493    0.89483   1.00
O2       0.67130    0.45360    0.93410   1.00
O2       0.54080    0.31410    0.93370   1.00
O2       0.82527    0.42033    0.89483   1.00
O2       0.77330    0.45920    0.93370   1.00
O2       0.78230    0.32870    0.93410   1.00
O2       0.59507    0.17473    0.89483   1.00
O2       0.54640    0.21770    0.93410   1.00
O2       0.68590    0.22670    0.93370   1.00
C1       0.58057    0.39353    0.87663   1.00
C1       0.81297    0.41943    0.87663   1.00
C1       0.60647    0.18703    0.87663   1.00
C1       0.73330    0.47730    0.93970   1.00
C1       0.52270    0.25600    0.93970   1.00
C1       0.74400    0.26670    0.93970   1.00
O1       0.66667    0.33333    0.25863   1.00
Zn1      0.66667    0.33333    0.28773   1.00
Zn1      0.70953    0.28177    0.24977   1.00
Zn1      0.71823    0.42777    0.24977   1.00
Zn1      0.57223    0.29047    0.24977   1.00
O2       0.69277    0.27193    0.29773   1.00
O2       0.72807    0.42083    0.29773   1.00
O2       0.57917    0.30723    0.29773   1.00
O2       0.73827    0.24633    0.27183   1.00
O2       0.78693    0.33797    0.23257   1.00
O2       0.64743    0.20747    0.23297   1.00
O2       0.75367    0.49193    0.27183   1.00
O2       0.79253    0.43997    0.23297   1.00
O2       0.66203    0.44897    0.23257   1.00
O2       0.50807    0.26173    0.27183   1.00
O2       0.55103    0.21307    0.23257   1.00
O2       0.56003    0.35257    0.23297   1.00
C1       0.72687    0.24723    0.29003   1.00
C1       0.75277    0.47963    0.29003   1.00
C1       0.52037    0.27313    0.29003   1.00
C1       0.81063    0.39997    0.22697   1.00
C1       0.58933    0.18937    0.22697   1.00
C1       0.60003    0.41067    0.22697   1.00
O1       0.66667    0.33333    0.75863   1.00
Zn1      0.66667    0.33333    0.78773   1.00
Zn1      0.71823    0.29047    0.74977   1.00
Zn1      0.57223    0.28177    0.74977   1.00
Zn1      0.70953    0.42777    0.74977   1.00
O2       0.72807    0.30723    0.79773   1.00
O2       0.57917    0.27193    0.79773   1.00
O2       0.69277    0.42083    0.79773   1.00
O2       0.75367    0.26173    0.77183   1.00
O2       0.66203    0.21307    0.73257   1.00
O2       0.79253    0.35257    0.73297   1.00
O2       0.50807    0.24633    0.77183   1.00
O2       0.56003    0.20747    0.73297   1.00
O2       0.55103    0.33797    0.73257   1.00
O2       0.73827    0.49193    0.77183   1.00
O2       0.78693    0.44897    0.73257   1.00
O2       0.64743    0.43997    0.73297   1.00
C1       0.75277    0.27313    0.79003   1.00
C1       0.52037    0.24723    0.79003   1.00
C1       0.72687    0.47963    0.79003   1.00
C1       0.60003    0.18937    0.72697   1.00
C1       0.81063    0.41067    0.72697   1.00
C1       0.58933    0.39997    0.72697   1.00
O1       0.66667    0.33333    0.40803   1.00
Zn1      0.66667    0.33333    0.37893   1.00
Zn1      0.62380    0.38490    0.41690   1.00
Zn1      0.61510    0.23890    0.41690   1.00
Zn1      0.76110    0.37620    0.41690   1.00
O2       0.64057    0.39473    0.36893   1.00
O2       0.60527    0.24583    0.36893   1.00
O2       0.75417    0.35943    0.36893   1.00
O2       0.59507    0.42033    0.39483   1.00
O2       0.54640    0.32870    0.43410   1.00
O2       0.68590    0.45920    0.43370   1.00
O2       0.57967    0.17473    0.39483   1.00
O2       0.54080    0.22670    0.43370   1.00
O2       0.67130    0.21770    0.43410   1.00
O2       0.82527    0.40493    0.39483   1.00
O2       0.78230    0.45360    0.43410   1.00
O2       0.77330    0.31410    0.43370   1.00
C1       0.60647    0.41943    0.37663   1.00
C1       0.58057    0.18703    0.37663   1.00
C1       0.81297    0.39353    0.37663   1.00
C1       0.52270    0.26670    0.43970   1.00
C1       0.74400    0.47730    0.43970   1.00
C1       0.73330    0.25600    0.43970   1.00
O1       0.33333    0.66667    0.24137   1.00
Zn1      0.33333    0.66667    0.21227   1.00
Zn1      0.28177    0.70953    0.25023   1.00
Zn1      0.42777    0.71823    0.25023   1.00
Zn1      0.29047    0.57223    0.25023   1.00
O2       0.27193    0.69277    0.20227   1.00
O2       0.42083    0.72807    0.20227   1.00
O2       0.30723    0.57917    0.20227   1.00
O2       0.24633    0.73827    0.22817   1.00
O2       0.33797    0.78693    0.26743   1.00
O2       0.20747    0.64743    0.26703   1.00
O2       0.49193    0.75367    0.22817   1.00
O2       0.43997    0.79253    0.26703   1.00
O2       0.44897    0.66203    0.26743   1.00
O2       0.26173    0.50807    0.22817   1.00
O2       0.21307    0.55103    0.26743   1.00
O2       0.35257    0.56003    0.26703   1.00
C1       0.24723    0.72687    0.20997   1.00
C1       0.47963    0.75277    0.20997   1.00
C1       0.27313    0.52037    0.20997   1.00
C1       0.39997    0.81063    0.27303   1.00
C1       0.18937    0.58933    0.27303   1.00
C1       0.41067    0.60003    0.27303   1.00
O1       0.33333    0.66667    0.59197   1.00
Zn1      0.33333    0.66667    0.62107   1.00
Zn1      0.37620    0.61510    0.58310   1.00
Zn1      0.38490    0.76110    0.58310   1.00
Zn1      0.23890    0.62380    0.58310   1.00
O2       0.35943    0.60527    0.63107   1.00
O2       0.39473    0.75417    0.63107   1.00
O2       0.24583    0.64057    0.63107   1.00
O2       0.40493    0.57967    0.60517   1.00
O2       0.45360    0.67130    0.56590   1.00
O2       0.31410    0.54080    0.56630   1.00
O2       0.42033    0.82527    0.60517   1.00
O2       0.45920    0.77330    0.56630   1.00
O2       0.32870    0.78230    0.56590   1.00
O2       0.17473    0.59507    0.60517   1.00
O2       0.21770    0.54640    0.56590   1.00
O2       0.22670    0.68590    0.56630   1.00
C1       0.39353    0.58057    0.62337   1.00
C1       0.41943    0.81297    0.62337   1.00
C1       0.18703    0.60647    0.62337   1.00
C1       0.47730    0.73330    0.56030   1.00
C1       0.25600    0.52270    0.56030   1.00
C1       0.26670    0.74400    0.56030   1.00
O1       0.33333    0.66667    0.09197   1.00
Zn1      0.33333    0.66667    0.12107   1.00
Zn1      0.38490    0.62380    0.08310   1.00
Zn1      0.23890    0.61510    0.08310   1.00
Zn1      0.37620    0.76110    0.08310   1.00
O2       0.39473    0.64057    0.13107   1.00
O2       0.24583    0.60527    0.13107   1.00
O2       0.35943    0.75417    0.13107   1.00
O2       0.42033    0.59507    0.10517   1.00
O2       0.32870    0.54640    0.06590   1.00
O2       0.45920    0.68590    0.06630   1.00
O2       0.17473    0.57967    0.10517   1.00
O2       0.22670    0.54080    0.06630   1.00
O2       0.21770    0.67130    0.06590   1.00
O2       0.40493    0.82527    0.10517   1.00
O2       0.45360    0.78230    0.06590   1.00
O2       0.31410    0.77330    0.06630   1.00
C1       0.41943    0.60647    0.12337   1.00
C1       0.18703    0.58057    0.12337   1.00
C1       0.39353    0.81297    0.12337   1.00
C1       0.26670    0.52270    0.06030   1.00
C1       0.47730    0.74400    0.06030   1.00
C1       0.25600    0.73330    0.06030   1.00
O1       0.33333    0.66667    0.74137   1.00
Zn1      0.33333    0.66667    0.71227   1.00
Zn1      0.29047    0.71823    0.75023   1.00
Zn1      0.28177    0.57223    0.75023   1.00
Zn1      0.42777    0.70953    0.75023   1.00
O2       0.30723    0.72807    0.70227   1.00
O2       0.27193    0.57917    0.70227   1.00
O2       0.42083    0.69277    0.70227   1.00
O2       0.26173    0.75367    0.72817   1.00
O2       0.21307    0.66203    0.76743   1.00
O2       0.35257    0.79253    0.76703   1.00
O2       0.24633    0.50807    0.72817   1.00
O2       0.20747    0.56003    0.76703   1.00
O2       0.33797    0.55103    0.76743   1.00
O2       0.49193    0.73827    0.72817   1.00
O2       0.44897    0.78693    0.76743   1.00
O2       0.43997    0.64743    0.76703   1.00
C1       0.27313    0.75277    0.70997   1.00
C1       0.24723    0.52037    0.70997   1.00
C1       0.47963    0.72687    0.70997   1.00
C1       0.18937    0.60003    0.77303   1.00
C1       0.41067    0.81063    0.77303   1.00
C1       0.39997    0.58933    0.77303   1.00
C4       0.83791    0.63859    0.48510   1.00
C4       0.86290    0.68892    0.50077   1.00
C3       0.88124    0.63604    0.46988   1.00
C3       0.93376    0.73559    0.50359   1.00
C3       0.76700    0.58857    0.48437   1.00
C3       0.81597    0.69343    0.51431   1.00
C2       0.78804    0.53482    0.45398   1.00
C2       0.91329    0.79290    0.53183   1.00
C3       0.85726    0.58559    0.45484   1.00
C3       0.95830    0.78625    0.51856   1.00
C3       0.74469    0.53783    0.46887   1.00
C3       0.84301    0.74599    0.52929   1.00
H1       0.93174    0.67114    0.46902   1.00
H1       0.97026    0.73409    0.49499   1.00
C5       0.72040    0.59026    0.49877   1.00
C5       0.74424    0.64603    0.51277   1.00
H1       0.89117    0.58638    0.44434   1.00
H1       1.00998    0.81851    0.51975   1.00
H1       0.69474    0.50113    0.46794   1.00
H1       0.81122    0.75112    0.53910   1.00
C6       0.64698    0.53289    0.49916   1.00
C6       0.69467    0.65589    0.52574   1.00
H2       0.64580    0.48437    0.49773   1.00
H2       0.70949    0.70968    0.52569   1.00
H2       0.62392    0.52776    0.51399   1.00
H2       0.64431    0.63266    0.51889   1.00
C6       0.60135    0.54076    0.48272   1.00
C6       0.68799    0.62783    0.54786   1.00
H2       0.62868    0.55578    0.46828   1.00
H2       0.73864    0.64293    0.55383   1.00
C6       0.52908    0.47771    0.47867   1.00
C6       0.65041    0.64845    0.56386   1.00
H2       0.59492    0.58369    0.48717   1.00
H2       0.66160    0.57222    0.54699   1.00
C6       0.53387    0.41756    0.46917   1.00
C6       0.69070    0.72601    0.56845   1.00
C6       0.48594    0.45308    0.49833   1.00
C6       0.57741    0.62821    0.55682   1.00
C6       0.49100    0.49891    0.46333   1.00
C6       0.64444    0.61022    0.58398   1.00
H2       0.56497    0.43359    0.45543   1.00
H2       0.74287    0.74214    0.57315   1.00
H2       0.55641    0.39727    0.47968   1.00
H2       0.69323    0.75598    0.55523   1.00
H2       0.48349    0.37569    0.46511   1.00
H2       0.66659    0.73910    0.58062   1.00
H2       0.43411    0.41233    0.49509   1.00
H2       0.54997    0.63834    0.56867   1.00
H2       0.50807    0.43318    0.50914   1.00
H2       0.57883    0.65721    0.54345   1.00
H2       0.48297    0.49486    0.50555   1.00
H2       0.54839    0.57408    0.55307   1.00
H2       0.51904    0.51610    0.44906   1.00
H2       0.69476    0.62331    0.58974   1.00
H2       0.44029    0.45634    0.45990   1.00
H2       0.61888    0.62334    0.59570   1.00
H2       0.48478    0.54038    0.46935   1.00
H2       0.61526    0.55508    0.58181   1.00
C4       0.35237    0.18552    0.48238   1.00
C4       0.29838    0.15946    0.49693   1.00
C3       0.40544    0.16910    0.48288   1.00
C3       0.28968    0.10969    0.51166   1.00
C3       0.35424    0.22986    0.46663   1.00
C3       0.25073    0.18344    0.49695   1.00
C2       0.45974    0.23550    0.45238   1.00
C2       0.19122    0.10919    0.52700   1.00
C3       0.45734    0.19298    0.46830   1.00
C3       0.23799    0.08549    0.52631   1.00
C3       0.40777    0.25277    0.45201   1.00
C3       0.19905    0.15779    0.51220   1.00
H1       0.40876    0.13972    0.49398   1.00
H1       0.32016    0.08864    0.51217   1.00
C5       0.30384    0.25049    0.46583   1.00
C5       0.25516    0.23140    0.48196   1.00
H1       0.49397    0.17906    0.46946   1.00
H1       0.23461    0.04979    0.53657   1.00
H1       0.41055    0.28398    0.44051   1.00
H1       0.16451    0.17396    0.51280   1.00
C6       0.30219    0.29142    0.44790   1.00
C6       0.20903    0.26176    0.48348   1.00
H2       0.30927    0.26970    0.43399   1.00
H2       0.20725    0.27558    0.49921   1.00
H2       0.25167    0.28472    0.44560   1.00
H2       0.23103    0.31103    0.47598   1.00
C6       0.35510    0.36952    0.44965   1.00
C6       0.13580    0.21399    0.47475   1.00
H2       0.40404    0.37655    0.45486   1.00
H2       0.11716    0.16176    0.47995   1.00
C6       0.36869    0.41429    0.43022   1.00
C6       0.07953    0.23289    0.47953   1.00
H2       0.33785    0.39035    0.46173   1.00
H2       0.14030    0.21218    0.45829   1.00
C6       0.40367    0.39507    0.41330   1.00
C6       0.06207    0.22598    0.50247   1.00
C6       0.30205    0.40834    0.42181   1.00
C6       0.10106    0.30616    0.47244   1.00
C6       0.41760    0.49006    0.43593   1.00
C6       0.01351    0.18266    0.46794   1.00
H2       0.45036    0.39769    0.41885   1.00
H2       0.04773    0.17509    0.50802   1.00
H2       0.37030    0.34363    0.40767   1.00
H2       0.10518    0.26289    0.51144   1.00
H2       0.41720    0.42960    0.40038   1.00
H2       0.01960    0.23464    0.50544   1.00
H2       0.31267    0.44339    0.40917   1.00
H2       0.05964    0.31708    0.47451   1.00
H2       0.26762    0.35695    0.41628   1.00
H2       0.14464    0.34391    0.48112   1.00
H2       0.27566    0.42023    0.43356   1.00
H2       0.11501    0.31283    0.45642   1.00
H2       0.46588    0.49721    0.44177   1.00
H2       -0.00432   0.13008    0.47256   1.00
H2       0.42903    0.52340    0.42279   1.00
H2       -0.02754   0.19354    0.47091   1.00
H2       0.39515    0.50711    0.44755   1.00
H2       0.02221    0.18614    0.45160   1.00
C4       0.81353    0.16516    0.48214   1.00
C4       0.83903    0.13680    0.49673   1.00
C3       0.84039    0.23676    0.48013   1.00
C3       0.89765    0.17803    0.50883   1.00
C3       0.75903    0.12099    0.46896   1.00
C3       0.80532    0.06454    0.49952   1.00
C2       0.76428    0.22273    0.45198   1.00
C2       0.88867    0.07975    0.52694   1.00
C3       0.81684    0.26480    0.46545   1.00
C3       0.92161    0.15053    0.52355   1.00
C3       0.73677    0.15160    0.45414   1.00
C3       0.83112    0.03859    0.51475   1.00
H1       0.87762    0.27121    0.48938   1.00
H1       0.92554    0.22955    0.50725   1.00
C5       0.72801    0.04838    0.47083   1.00
C5       0.74777    0.02023    0.48720   1.00
H1       0.83852    0.31687    0.46473   1.00
H1       0.96399    0.18303    0.53184   1.00
H1       0.69846    0.12190    0.44440   1.00
H1       0.80825    -0.01247   0.51727   1.00
C6       0.67547    0.00250    0.45541   1.00
C6       0.70825    -0.05542   0.49176   1.00
H2       0.69306    0.02324    0.44028   1.00
H2       0.70086    -0.06268   0.50810   1.00
H2       0.67279    -0.04668   0.45431   1.00
H2       0.65597    -0.07878   0.48637   1.00
C6       0.60230    -0.00927   0.45978   1.00
C6       0.74226    -0.09533   0.48277   1.00
H2       0.60577    0.03919    0.46382   1.00
H2       0.79716    -0.06674   0.48562   1.00
C6       0.54757    -0.04289   0.44263   1.00
C6       0.71476    -0.17025   0.49022   1.00
H2       0.58302    -0.04091   0.47337   1.00
H2       0.73698    -0.09611   0.46628   1.00
C6       0.56584    0.00418    0.42380   1.00
C6       0.73024    -0.17277   0.51303   1.00
C6       0.53835    -0.11267   0.43603   1.00
C6       0.63705    -0.21521   0.48657   1.00
C6       0.47812    -0.05514   0.45090   1.00
C6       0.75125    -0.20151   0.47806   1.00
H2       0.57379    0.05430    0.42801   1.00
H2       0.78462    -0.14062   0.51617   1.00
H2       0.61212    0.01157    0.41646   1.00
H2       0.70272    -0.15539   0.52259   1.00
H2       0.52516    -0.01757   0.41252   1.00
H2       0.71516    -0.22463   0.51773   1.00
H2       0.49675    -0.13788   0.42514   1.00
H2       0.61931    -0.26834   0.49046   1.00
H2       0.58444    -0.10643   0.42881   1.00
H2       0.60859    -0.19819   0.49586   1.00
H2       0.52685    -0.14632   0.44908   1.00
H2       0.62459    -0.21319   0.47069   1.00
H2       0.48164    -0.00723   0.45558   1.00
H2       0.80637    -0.17200   0.48030   1.00
H2       0.43823    -0.07820   0.43940   1.00
H2       0.73404    -0.25382   0.48283   1.00
H2       0.46174    -0.08921   0.46399   1.00
H2       0.74112    -0.20244   0.46185   1.00
C4       0.63833    0.83731    0.01482   1.00
C4       0.68870    0.86215    -0.00084   1.00
C3       0.63282    0.88142    0.02915   1.00
C3       0.73229    0.93309    -0.00459   1.00
C3       0.59130    0.76577    0.01646   1.00
C3       0.69643    0.81496    -0.01340   1.00
C2       0.53436    0.78750    0.04588   1.00
C2       0.79285    0.91248    -0.03185   1.00
C3       0.58227    0.85744    0.04415   1.00
C3       0.78303    0.95762    -0.01954   1.00
C3       0.54033    0.74346    0.03188   1.00
C3       0.74898    0.84203    -0.02839   1.00
H1       0.66577    0.93255    0.02935   1.00
H1       0.72836    0.96960    0.00327   1.00
C5       0.59611    0.71859    0.00300   1.00
C5       0.65216    0.74294    -0.01091   1.00
H1       0.58085    0.89190    0.05398   1.00
H1       0.81299    1.00939    -0.02143   1.00
H1       0.50569    0.69304    0.03343   1.00
H1       0.75635    0.81011    -0.03752   1.00
C6       0.54168    0.64397    0.00350   1.00
C6       0.66557    0.69364    -0.02281   1.00
H2       0.49176    0.63993    0.00449   1.00
H2       0.72004    0.71142    -0.02254   1.00
H2       0.53797    0.61900    -0.01091   1.00
H2       0.64479    0.64465    -0.01521   1.00
C6       0.55257    0.60309    0.02087   1.00
C6       0.63723    0.68183    -0.04503   1.00
H2       0.56620    0.63276    0.03490   1.00
H2       0.64961    0.73071    -0.05184   1.00
C6       0.49219    0.52994    0.02573   1.00
C6       0.66099    0.64431    -0.06007   1.00
H2       0.59725    0.59894    0.01696   1.00
H2       0.58161    0.65291    -0.04417   1.00
C6       0.42984    0.53221    0.03455   1.00
C6       0.73837    0.68745    -0.06472   1.00
C6       0.46970    0.48355    0.00671   1.00
C6       0.64474    0.57369    -0.05182   1.00
C6       0.51635    0.49703    0.04198   1.00
C6       0.62213    0.63284    -0.08041   1.00
H2       0.44428    0.56548    0.04782   1.00
H2       0.75170    0.73808    -0.07026   1.00
H2       0.40758    0.55096    0.02343   1.00
H2       0.76899    0.69396    -0.05128   1.00
H2       0.38988    0.48154    0.03919   1.00
H2       0.75348    0.66307    -0.07626   1.00
H2       0.43099    0.43142    0.01056   1.00
H2       0.65700    0.54595    -0.06302   1.00
H2       0.44786    0.50188    -0.00470   1.00
H2       0.67443    0.57909    -0.03823   1.00
H2       0.51299    0.48221    -0.00005   1.00
H2       0.59078    0.54280    -0.04803   1.00
H2       0.53217    0.52750    0.05585   1.00
H2       0.63244    0.68132    -0.08701   1.00
H2       0.47569    0.44590    0.04599   1.00
H2       0.63735    0.60713    -0.09149   1.00
H2       0.55951    0.49274    0.03649   1.00
H2       0.56716    0.60147    -0.07820   1.00
C4       0.18553    0.35237    0.01763   1.00
C4       0.15948    0.29837    0.00308   1.00
C3       0.16900    0.40536    0.01715   1.00
C3       0.10961    0.28959    -0.01163   1.00
C3       0.22997    0.35431    0.03335   1.00
C3       0.18356    0.25081    0.00303   1.00
C2       0.23550    0.45973    0.04763   1.00
C2       0.10920    0.19122    -0.02699   1.00
C3       0.19288    0.45726    0.03173   1.00
C3       0.08541    0.23790    -0.02629   1.00
C3       0.25288    0.40783    0.04797   1.00
C3       0.15790    0.19912    -0.01222   1.00
H1       0.13953    0.40862    0.00606   1.00
H1       0.08849    0.32001    -0.01212   1.00
C5       0.25072    0.30399    0.03412   1.00
C5       0.23161    0.25532    0.01799   1.00
H1       0.17888    0.49383    0.03058   1.00
H1       0.04964    0.23447    -0.03652   1.00
H1       0.28416    0.41066    0.05946   1.00
H1       0.17415    0.16464    -0.01284   1.00
C6       0.29177    0.30241    0.05203   1.00
C6       0.26208    0.20928    0.01644   1.00
H2       0.27007    0.30945    0.06596   1.00
H2       0.27585    0.20752    0.00070   1.00
H2       0.28515    0.25192    0.05432   1.00
H2       0.31138    0.23135    0.02392   1.00
C6       0.36983    0.35541    0.05025   1.00
C6       0.21443    0.13603    0.02518   1.00
H2       0.37676    0.40432    0.04505   1.00
H2       0.16216    0.11731    0.02001   1.00
C6       0.41471    0.36907    0.06966   1.00
C6       0.23343    0.07984    0.02038   1.00
H2       0.39066    0.33821    0.03816   1.00
H2       0.21269    0.14052    0.04164   1.00
C6       0.39549    0.40398    0.08661   1.00
C6       0.22643    0.06239    -0.00256   1.00
C6       0.40891    0.30247    0.07806   1.00
C6       0.30676    0.10148    0.02743   1.00
C6       0.49043    0.41807    0.06393   1.00
C6       0.18332    0.01379    0.03197   1.00
H2       0.39800    0.45064    0.08106   1.00
H2       0.17550    0.04797    -0.00809   1.00
H2       0.34408    0.37056    0.09226   1.00
H2       0.26326    0.10552    -0.01154   1.00
H2       0.43008    0.41756    0.09951   1.00
H2       0.23516    0.01996    -0.00555   1.00
H2       0.44402    0.31315    0.09068   1.00
H2       0.31774    0.06011    0.02535   1.00
H2       0.35755    0.26799    0.08361   1.00
H2       0.34442    0.14508    0.01875   1.00
H2       0.42079    0.27613    0.06630   1.00
H2       0.31347    0.11543    0.04345   1.00
H2       0.49748    0.46632    0.05810   1.00
H2       0.13070    -0.00412   0.02738   1.00
H2       0.52383    0.42954    0.07706   1.00
H2       0.19426    -0.02721   0.02899   1.00
H2       0.50748    0.39567    0.05229   1.00
H2       0.18686    0.02249    0.04832   1.00
C4       0.16516    0.81353    0.01786   1.00
C4       0.13680    0.83903    0.00327   1.00
C3       0.23676    0.84039    0.01987   1.00
C3       0.17803    0.89765    -0.00883   1.00
C3       0.12099    0.75903    0.03104   1.00
C3       0.06454    0.80532    0.00048   1.00
C2       0.22273    0.76428    0.04802   1.00
C2       0.07975    0.88867    -0.02694   1.00
C3       0.26480    0.81684    0.03455   1.00
C3       0.15053    0.92161    -0.02355   1.00
C3       0.15160    0.73677    0.04586   1.00
C3       0.03859    0.83112    -0.01475   1.00
H1       0.27121    0.87761    0.01062   1.00
H1       0.22955    0.92554    -0.00726   1.00
C5       0.04838    0.72801    0.02917   1.00
C5       0.02023    0.74777    0.01280   1.00
H1       0.31687    0.83852    0.03527   1.00
H1       0.18303    0.96399    -0.03184   1.00
H1       0.12190    0.69846    0.05560   1.00
H1       -0.01246   0.80825    -0.01727   1.00
C6       0.00250    0.67547    0.04459   1.00
C6       -0.05542   0.70825    0.00824   1.00
H2       0.02324    0.69307    0.05973   1.00
H2       -0.06268   0.70086    -0.00810   1.00
H2       -0.04667   0.67279    0.04569   1.00
H2       -0.07879   0.65597    0.01363   1.00
C6       -0.00927   0.60231    0.04022   1.00
C6       -0.09532   0.74226    0.01723   1.00
H2       0.03919    0.60577    0.03618   1.00
H2       -0.06674   0.79716    0.01438   1.00
C6       -0.04289   0.54757    0.05737   1.00
C6       -0.17024   0.71477    0.00978   1.00
H2       -0.04092   0.58302    0.02663   1.00
H2       -0.09611   0.73698    0.03372   1.00
C6       0.00418    0.56584    0.07620   1.00
C6       -0.17277   0.73024    -0.01303   1.00
C6       -0.11267   0.53836    0.06397   1.00
C6       -0.21521   0.63706    0.01343   1.00
C6       -0.05515   0.47812    0.04910   1.00
C6       -0.20151   0.75125    0.02194   1.00
H2       0.05430    0.57379    0.07199   1.00
H2       -0.14062   0.78463    -0.01617   1.00
H2       0.01157    0.61213    0.08354   1.00
H2       -0.15539   0.70273    -0.02259   1.00
H2       -0.01757   0.52516    0.08748   1.00
H2       -0.22463   0.71516    -0.01773   1.00
H2       -0.13788   0.49676    0.07487   1.00
H2       -0.26834   0.61931    0.00954   1.00
H2       -0.10643   0.58444    0.07119   1.00
H2       -0.19819   0.60859    0.00414   1.00
H2       -0.14632   0.52686    0.05092   1.00
H2       -0.21319   0.62460    0.02931   1.00
H2       -0.00723   0.48164    0.04442   1.00
H2       -0.17200   0.80638    0.01970   1.00
H2       -0.07821   0.43823    0.06061   1.00
H2       -0.25382   0.73405    0.01717   1.00
H2       -0.08921   0.46174    0.03601   1.00
H2       -0.20243   0.74112    0.03815   1.00
C4       0.16272    0.35102    0.51805   1.00
C4       0.13789    0.29804    0.50318   1.00
C3       0.11858    0.36682    0.52926   1.00
C3       0.06695    0.25261    0.49999   1.00
C3       0.23427    0.39028    0.52205   1.00
C3       0.18507    0.28936    0.49091   1.00
C2       0.21252    0.45590    0.54883   1.00
C2       0.08756    0.19303    0.47244   1.00
C3       0.14256    0.41740    0.54425   1.00
C3       0.04242    0.20189    0.48503   1.00
C3       0.25658    0.44108    0.53752   1.00
C3       0.15800    0.23733    0.47577   1.00
H1       0.06743    0.34264    0.52680   1.00
H1       0.03045    0.25422    0.50856   1.00
C5       0.28148    0.37865    0.51066   1.00
C5       0.25710    0.33168    0.49399   1.00
H1       0.10808    0.42615    0.55186   1.00
H1       -0.00934   0.17094    0.48344   1.00
H1       0.30702    0.46972    0.54089   1.00
H1       0.18993    0.22989    0.46665   1.00
C6       0.35614    0.41545    0.51650   1.00
C6       0.30638    0.32679    0.47950   1.00
H2       0.36031    0.41445    0.53295   1.00
H2       0.28846    0.32426    0.46401   1.00
H2       0.38120    0.38751    0.51170   1.00
H2       0.35530    0.37378    0.47915   1.00
C6       0.39680    0.48995    0.50797   1.00
C6       0.31842    0.26587    0.48437   1.00
H2       0.36703    0.51539    0.51014   1.00
H2       0.26962    0.22020    0.48767   1.00
C6       0.46998    0.53777    0.51664   1.00
C6       0.35593    0.24655    0.46798   1.00
H2       0.40084    0.48652    0.49154   1.00
H2       0.34745    0.27781    0.49849   1.00
C6       0.46783    0.55427    0.53937   1.00
C6       0.31266    0.21836    0.44842   1.00
C6       0.51651    0.50629    0.51400   1.00
C6       0.42643    0.30816    0.46247   1.00
C6       0.50265    0.60620    0.50480   1.00
C6       0.36764    0.18955    0.47673   1.00
H2       0.43447    0.57557    0.54180   1.00
H2       0.26211    0.17545    0.45184   1.00
H2       0.44925    0.50888    0.54878   1.00
H2       0.30597    0.25724    0.44077   1.00
H2       0.51851    0.59130    0.54490   1.00
H2       0.33705    0.20065    0.43765   1.00
H2       0.56865    0.54202    0.51875   1.00
H2       0.45418    0.29300    0.45215   1.00
H2       0.49836    0.46034    0.52315   1.00
H2       0.42086    0.34800    0.45497   1.00
H2       0.51778    0.49287    0.49817   1.00
H2       0.45741    0.32988    0.47605   1.00
H2       0.47208    0.63097    0.50635   1.00
H2       0.31926    0.14445    0.48069   1.00
H2       0.55379    0.64158    0.51041   1.00
H2       0.39336    0.17395    0.46576   1.00
H2       0.50686    0.59808    0.48867   1.00
H2       0.39911    0.20685    0.49037   1.00
C4       0.64817    0.81385    0.51779   1.00
C4       0.70045    0.84188    0.50271   1.00
C3       0.64734    0.77033    0.53354   1.00
C3       0.75917    0.83425    0.50354   1.00
C3       0.59420    0.82931    0.51733   1.00
C3       0.69469    0.87919    0.48607   1.00
C2       0.54432    0.75985    0.54889   1.00
C2       0.80457    0.89565    0.47169   1.00
C3       0.59725    0.74437    0.54868   1.00
C3       0.80953    0.85997    0.48847   1.00
C3       0.54438    0.80215    0.53310   1.00
C3       0.74690    0.90424    0.47099   1.00
H1       0.68272    0.75531    0.53448   1.00
H1       0.76789    0.81031    0.51523   1.00
C5       0.59072    0.87050    0.50137   1.00
C5       0.63818    0.89100    0.48486   1.00
H1       0.59966    0.71348    0.55967   1.00
H1       0.85051    0.85253    0.48991   1.00
H1       0.50549    0.81238    0.53337   1.00
H1       0.74436    0.93061    0.45886   1.00
C6       0.53761    0.89241    0.50227   1.00
C6       0.62895    0.92417    0.46611   1.00
H2       0.53532    0.90864    0.51767   1.00
H2       0.63815    0.90183    0.45270   1.00
H2       0.55335    0.93903    0.49374   1.00
H2       0.57599    0.91043    0.46398   1.00
C6       0.46567    0.83616    0.49459   1.00
C6       0.67438    1.00384    0.46620   1.00
H2       0.45369    0.78672    0.50088   1.00
H2       0.72589    1.01836    0.47123   1.00
C6       0.40372    0.84688    0.49898   1.00
C6       0.68065    1.04232    0.44587   1.00
H2       0.46909    0.83119    0.47821   1.00
H2       0.65432    1.02351    0.47782   1.00
C6       0.38838    0.84357    0.52201   1.00
C6       0.71883    1.02544    0.42938   1.00
C6       0.41563    0.91564    0.49036   1.00
C6       0.60986    1.02557    0.43764   1.00
C6       0.33949    0.78869    0.48851   1.00
C6       0.72254    1.12023    0.44995   1.00
H2       0.38082    0.79605    0.52863   1.00
H2       0.76861    1.03567    0.43485   1.00
H2       0.42987    0.88569    0.53017   1.00
H2       0.69005    0.97209    0.42486   1.00
H2       0.34234    0.84634    0.52482   1.00
H2       0.72711    1.05603    0.41576   1.00
H2       0.37030    0.92042    0.49221   1.00
H2       0.61501    1.05629    0.42428   1.00
H2       0.45748    0.95852    0.49821   1.00
H2       0.57995    0.97214    0.43321   1.00
H2       0.42795    0.91989    0.47424   1.00
H2       0.58132    1.03565    0.44911   1.00
H2       0.32836    0.73890    0.49422   1.00
H2       0.77339    1.13493    0.45560   1.00
H2       0.29465    0.79371    0.49125   1.00
H2       0.72872    1.14938    0.43614   1.00
H2       0.34665    0.78920    0.47213   1.00
H2       0.69744    1.13558    0.46119   1.00
C4       0.18624    0.83447    0.51781   1.00
C4       0.15820    0.85875    0.50274   1.00
C3       0.23074    0.87744    0.53335   1.00
C3       0.16685    0.92552    0.50339   1.00
C3       0.16978    0.76473    0.51756   1.00
C3       0.11981    0.81525    0.48630   1.00
C2       0.24031    0.78464    0.54889   1.00
C2       0.10437    0.90908    0.47174   1.00
C3       0.25674    0.85333    0.54848   1.00
C3       0.14110    0.95016    0.48833   1.00
C3       0.19702    0.74210    0.53332   1.00
C3       0.09477    0.84242    0.47121   1.00
H1       0.24648    0.92803    0.53412   1.00
H1       0.19161    0.95854    0.51494   1.00
C5       0.12755    0.71972    0.50181   1.00
C5       0.10696    0.74654    0.48528   1.00
H1       0.28837    0.88685    0.55931   1.00
H1       0.14932    0.99889    0.48963   1.00
H1       0.18610    0.69276    0.53373   1.00
H1       0.06764    0.81320    0.45922   1.00
C6       0.10466    0.64450    0.50294   1.00
C6       0.07260    0.70357    0.46672   1.00
H2       0.08891    0.62672    0.51842   1.00
H2       0.09470    0.73445    0.45317   1.00
H2       0.05757    0.61377    0.49460   1.00
H2       0.08552    0.66374    0.46465   1.00
C6       0.15989    0.62747    0.49517   1.00
C6       -0.00697   0.67033    0.46708   1.00
H2       0.20978    0.66469    0.50124   1.00
H2       -0.02057   0.70805    0.47206   1.00
C6       0.14828    0.55457    0.49975   1.00
C6       -0.04649   0.63766    0.44693   1.00
H2       0.16427    0.63518    0.47876   1.00
H2       -0.02662   0.63109    0.47885   1.00
C6       0.15233    0.54335    0.52281   1.00
C6       -0.02956   0.69221    0.43027   1.00
C6       0.07881    0.49803    0.49144   1.00
C6       -0.03108   0.58260    0.43879   1.00
C6       0.20546    0.54713    0.48916   1.00
C6       -0.12417   0.60278    0.45129   1.00
H2       0.20038    0.58312    0.52921   1.00
H2       -0.03885   0.73246    0.43566   1.00
H2       0.11089    0.54372    0.53107   1.00
H2       0.02355    0.71593    0.42556   1.00
H2       0.14892    0.49430    0.52574   1.00
H2       -0.06082   0.66966    0.41678   1.00
H2       0.07335    0.44767    0.49342   1.00
H2       -0.06251   0.55677    0.42557   1.00
H2       0.03659    0.49800    0.49939   1.00
H2       0.02210    0.60526    0.43417   1.00
H2       0.07405    0.50557    0.47531   1.00
H2       -0.04121   0.54431    0.45038   1.00
H2       0.25570    0.58553    0.49466   1.00
H2       -0.13794   0.63968    0.45689   1.00
H2       0.19981    0.49707    0.49203   1.00
H2       -0.15402   0.57954    0.43760   1.00
H2       0.20438    0.55317    0.47276   1.00
H2       -0.13957   0.56271    0.46267   1.00
C4       0.36153    0.16236    0.98514   1.00
C4       0.30942    0.13350    1.00026   1.00
C3       0.41578    0.23126    0.98600   1.00
C3       0.31180    0.16913    1.01833   1.00
C3       0.36008    0.12152    0.96839   1.00
C3       0.25242    0.06646    0.99746   1.00
C2       0.46879    0.21980    0.95511   1.00
C2       0.20242    0.07654    1.03037   1.00
C3       0.46801    0.25912    0.97152   1.00
C3       0.25984    0.14177    1.03290   1.00
C3       0.41445    0.15171    0.95403   1.00
C3       0.20040    0.04060    1.01261   1.00
H1       0.41901    0.26400    0.99707   1.00
H1       0.35171    0.21603    1.02168   1.00
C5       0.30522    0.05267    0.96625   1.00
C5       0.24860    0.02699    0.97998   1.00
H1       0.50584    0.30908    0.97304   1.00
H1       0.26445    0.17016    1.04557   1.00
H1       0.41546    0.12416    0.94199   1.00
H1       0.15886    -0.00668   1.01109   1.00
C6       0.30813    0.00785    0.94969   1.00
C6       0.18470    -0.04078   0.97614   1.00
H2       0.35938    0.01496    0.94911   1.00
H2       0.14021    -0.03541   0.97899   1.00
H2       0.27787    -0.04592   0.95351   1.00
H2       0.17854    -0.05422   0.96015   1.00
C6       0.28488    0.02007    0.92847   1.00
C6       0.18201    -0.10088   0.98869   1.00
H2       0.30766    0.07482    0.92579   1.00
H2       0.19789    -0.08425   1.00430   1.00
C6       0.29995    -0.01184   0.90948   1.00
C6       0.11246    -0.16953   0.98946   1.00
H2       0.22997    0.00048    0.92918   1.00
H2       0.22064    -0.11134   0.98253   1.00
C6       0.37761    0.02139    0.90543   1.00
C6       0.05716    -0.16149   1.00098   1.00
C6       0.26873    -0.08994   0.91176   1.00
C6       0.08608    -0.19774   0.96792   1.00
C6       0.26728    0.00137    0.89058   1.00
C6       0.12328    -0.22306   1.00106   1.00
H2       0.40139    0.07672    0.90408   1.00
H2       0.07468    -0.14059   1.01615   1.00
H2       0.40325    0.01049    0.91761   1.00
H2       0.04395    -0.12764   0.99297   1.00
H2       0.38744    0.00221    0.89140   1.00
H2       0.01038    -0.21051   1.00266   1.00
H2       0.27529    -0.11235   0.89789   1.00
H2       0.04021    -0.24790   0.96865   1.00
H2       0.29330    -0.10194   0.92403   1.00
H2       0.07319    -0.16418   0.95956   1.00
H2       0.21431    -0.11443   0.91505   1.00
H2       0.12464    -0.20254   0.95933   1.00
H2       0.28815    0.05595    0.88815   1.00
H2       0.14127    -0.20591   1.01648   1.00
H2       0.27683    -0.01962   0.87687   1.00
H2       0.07590    -0.27188   1.00212   1.00
H2       0.21215    -0.02208   0.89234   1.00
H2       0.16085    -0.23202   0.99342   1.00
C4       0.81462    0.64746    0.98243   1.00
C4       0.84244    0.69937    0.99762   1.00
C3       0.78146    0.65301    0.96476   1.00
C3       0.84545    0.76336    0.99522   1.00
C3       0.81958    0.58731    0.98475   1.00
C3       0.86857    0.68777    1.01601   1.00
C2       0.76129    0.54405    0.95120   1.00
C2       0.89562    0.80309    1.02876   1.00
C3       0.75587    0.60312    0.94955   1.00
C3       0.87089    0.81358    1.01033   1.00
C3       0.79321    0.53787    0.96886   1.00
C3       0.89370    0.74008    1.03107   1.00
H1       0.77405    0.69319    0.96237   1.00
H1       0.82990    0.77614    0.98231   1.00
C5       0.84985    0.57753    1.00261   1.00
C5       0.86954    0.62551    1.01895   1.00
H1       0.73276    0.61028    0.93714   1.00
H1       0.87142    0.85854    1.00769   1.00
H1       0.79621    0.49465    0.96990   1.00
H1       0.91228    0.73354    1.04440   1.00
C6       0.86131    0.51724    1.00388   1.00
C6       0.89055    0.61091    1.03930   1.00
H2       0.88166    0.51179    0.98946   1.00
H2       0.86660    0.62465    1.05132   1.00
H2       0.90255    0.52694    1.01424   1.00
H2       0.86869    0.55650    1.04185   1.00
C6       0.79586    0.44939    1.01026   1.00
C6       0.96981    0.64691    1.04211   1.00
H2       0.75181    0.44421    1.00191   1.00
H2       0.99327    0.69957    1.03676   1.00
C6       0.79717    0.38131    1.00772   1.00
C6       0.99749    0.64810    1.06396   1.00
H2       0.78547    0.45429    1.02617   1.00
H2       0.98886    0.62202    1.03198   1.00
C6       0.80078    0.36479    0.98508   1.00
C6       0.98198    0.69207    1.07868   1.00
C6       0.85770    0.38343    1.01932   1.00
C6       0.96762    0.57527    1.07278   1.00
C6       0.73012    0.32210    1.01662   1.00
C6       1.07617    0.68049    1.06281   1.00
H2       0.75932    0.36402    0.97640   1.00
H2       1.00147    0.74354    1.07273   1.00
H2       0.84873    0.40228    0.97817   1.00
H2       0.92741    0.66984    1.08119   1.00
H2       0.79690    0.31503    0.98339   1.00
H2       1.00553    0.69647    1.09347   1.00
H2       0.85537    0.33413    1.01866   1.00
H2       0.99088    0.57629    1.08737   1.00
H2       0.90627    0.42119    1.01275   1.00
H2       0.91283    0.55184    1.07521   1.00
H2       0.85717    0.39638    1.03523   1.00
H2       0.97659    0.54283    1.06249   1.00
H2       0.68567    0.31791    1.00880   1.00
H2       1.09993    0.73239    1.05686   1.00
H2       0.72842    0.27327    1.01508   1.00
H2       1.09800    0.68288    1.07776   1.00
H2       0.72527    0.33013    1.03272   1.00
H2       1.09037    0.65090    1.05293   1.00
C4       0.83450    0.18626    0.98218   1.00
C4       0.85879    0.15822    0.99725   1.00
C3       0.87752    0.23096    0.96669   1.00
C3       0.92565    0.16708    0.99664   1.00
C3       0.76470    0.16960    0.98240   1.00
C3       0.81520    0.11960    1.01365   1.00
C2       0.78468    0.24034    0.95111   1.00
C2       0.90911    0.10438    1.02825   1.00
C3       0.85342    0.25697    0.95156   1.00
C3       0.95028    0.14133    1.01170   1.00
C3       0.74208    0.19685    0.96664   1.00
C3       0.84237    0.09456    1.02874   1.00
H1       0.92815    0.24685    0.96595   1.00
H1       0.95873    0.19200    0.98512   1.00
C5       0.71962    0.12715    0.99810   1.00
C5       0.74642    0.10654    1.01463   1.00
H1       0.88698    0.28875    0.94076   1.00
H1       0.99908    0.14970    1.01043   1.00
H1       0.69270    0.18579    0.96620   1.00
H1       0.81309    0.06728    1.04071   1.00
C6       0.64436    0.10406    0.99692   1.00
C6       0.70332    0.07194    1.03315   1.00
H2       0.62674    0.08841    0.98142   1.00
H2       0.73407    0.09399    1.04673   1.00
H2       0.61367    0.05688    1.00522   1.00
H2       0.66337    0.08469    1.03520   1.00
C6       0.62705    0.15907    1.00471   1.00
C6       0.67030    -0.00761   1.03273   1.00
H2       0.66422    0.20906    0.99868   1.00
H2       0.70817    -0.02102   1.02777   1.00
C6       0.55412    0.14728    1.00008   1.00
C6       0.63754    -0.04734   1.05285   1.00
H2       0.63462    0.16333    1.02113   1.00
H2       0.63116    -0.02726   1.02094   1.00
C6       0.54305    0.15149    0.97703   1.00
C6       0.69198    -0.03041   1.06955   1.00
C6       0.49764    0.07767    1.00833   1.00
C6       0.58227    -0.03221   1.06097   1.00
C6       0.54638    0.20425    1.01071   1.00
C6       0.60289    -0.12498   1.04843   1.00
H2       0.58279    0.19964    0.97067   1.00
H2       0.73237    -0.03950   1.06417   1.00
H2       0.54364    0.11019    0.96874   1.00
H2       0.71552    0.02266    1.07430   1.00
H2       0.49397    0.14795    0.97407   1.00
H2       0.66938    -0.06181   1.08301   1.00
H2       0.44724    0.07207    1.00632   1.00
H2       0.55638    -0.06379   1.07416   1.00
H2       0.49781    0.03559    1.00036   1.00
H2       0.60475    0.02092    1.06563   1.00
H2       0.50507    0.07281    1.02446   1.00
H2       0.54404    -0.04235   1.04935   1.00
H2       0.58473    0.25458    1.00525   1.00
H2       0.63995    -0.13855   1.04284   1.00
H2       0.49629    0.19847    1.00780   1.00
H2       0.57959    -0.15497   1.06209   1.00
H2       0.55230    0.20306    1.02710   1.00
H2       0.56291    -0.14039   1.03703   1.00
C4       0.50006    0.98108    0.81567   1.00
C4       0.52806    1.03506    0.83022   1.00
C3       0.43008    0.92917    0.81582   1.00
C3       0.48679    1.04499    0.84458   1.00
C3       0.54296    0.97804    0.80028   1.00
C3       0.59997    1.08143    0.83063   1.00
C2       0.44264    0.87379    0.78564   1.00
C2       0.58498    1.14216    0.86031   1.00
C3       0.40205    0.87731    0.80123   1.00
C3       0.51429    1.09665    0.85924   1.00
C3       0.51234    0.92460    0.78563   1.00
C3       0.62599    1.13312    0.84588   1.00
H1       0.39699    0.92670    0.82667   1.00
H1       0.43513    1.01548    0.84480   1.00
C5       0.61441    1.02720    0.79985   1.00
C5       0.64379    1.07576    0.81602   1.00
H1       0.35114    0.84154    0.80213   1.00
H1       0.48181    1.10094    0.86922   1.00
H1       0.54107    0.92101    0.77437   1.00
H1       0.67688    1.16676    0.84675   1.00
C6       0.65766    1.02772    0.78226   1.00
C6       0.72036    1.12047    0.81797   1.00
H2       0.63001    1.02129    0.76815   1.00
H2       0.73473    1.12188    0.83382   1.00
H2       0.70238    1.07773    0.78012   1.00
H2       0.74717    1.09744    0.81079   1.00
C6       0.68097    0.97346    0.78443   1.00
C6       0.74801    1.19396    0.80916   1.00
H2       0.63799    0.92500    0.78950   1.00
H2       0.71503    1.21374    0.81400   1.00
C6       0.71268    0.95883    0.76532   1.00
C6       0.82332    1.24897    0.81431   1.00
H2       0.71817    0.98994    0.79675   1.00
H2       0.74278    1.18954    0.79267   1.00
C6       0.65945    0.92481    0.74809   1.00
C6       0.83263    1.26642    0.83726   1.00
C6       0.77489    1.02472    0.75713   1.00
C6       0.87425    1.22578    0.80773   1.00
C6       0.73747    0.90858    0.77143   1.00
C6       0.84144    1.31541    0.80259   1.00
H2       0.61436    0.87869    0.75348   1.00
H2       0.79660    1.28192    0.84246   1.00
H2       0.64289    0.95907    0.74219   1.00
H2       0.82477    1.22293    0.84635   1.00
H2       0.68067    0.91052    0.73541   1.00
H2       0.88399    1.30809    0.84048   1.00
H2       0.79954    1.01328    0.74473   1.00
H2       0.92684    1.26636    0.81005   1.00
H2       0.75945    1.06003    0.75132   1.00
H2       0.86675    1.18181    0.81654   1.00
H2       0.81253    1.05045    0.76908   1.00
H2       0.86778    1.21181    0.79171   1.00
H2       0.69524    0.86078    0.77713   1.00
H2       0.80733    1.33441    0.80685   1.00
H2       0.75967    0.89640    0.75852   1.00
H2       0.89355    1.35563    0.80581   1.00
H2       0.77624    0.93029    0.78328   1.00
H2       0.83716    1.30671    0.78624   1.00
C4       0.01830    0.51980    0.81547   1.00
C4       -0.03556   0.49430    0.83006   1.00
C3       0.06306    0.49295    0.81346   1.00
C3       -0.05293   0.43569    0.84216   1.00
C3       0.02861    0.57428    0.80228   1.00
C3       -0.07412   0.52800    0.83284   1.00
C2       0.12512    0.56905    0.78531   1.00
C2       -0.14225   0.44466    0.86027   1.00
C3       0.11465    0.51651    0.79879   1.00
C3       -0.10439   0.41173    0.85689   1.00
C3       0.08149    0.59654    0.78747   1.00
C3       -0.12587   0.50220    0.84807   1.00
H1       0.06029    0.45574    0.82272   1.00
H1       -0.02930   0.40781    0.84059   1.00
C5       -0.01299   0.60529    0.80415   1.00
C5       -0.06090   0.58553    0.82052   1.00
H1       0.14505    0.49483    0.79807   1.00
H1       -0.11427   0.36936    0.86517   1.00
H1       0.09008    0.63484    0.77773   1.00
H1       -0.15407   0.52506    0.85059   1.00
C6       -0.00634   0.65781    0.78872   1.00
C6       -0.09704   0.62504    0.82508   1.00
H2       -0.00319   0.64021    0.77359   1.00
H2       -0.09692   0.63244    0.84141   1.00
H2       -0.05285   0.66047    0.78763   1.00
H2       -0.06814   0.67731    0.81968   1.00
C6       0.05504    0.73099    0.79309   1.00
C6       -0.17096   0.59100    0.81608   1.00
H2       0.10004    0.72754    0.79713   1.00
H2       -0.19727   0.53611    0.81894   1.00
C6       0.07614    0.78570    0.77594   1.00
C6       -0.21841   0.61848    0.82353   1.00
H2       0.04267    0.75028    0.80668   1.00
H2       -0.16647   0.59627    0.79960   1.00
C6       0.10495    0.76743    0.75711   1.00
C6       -0.23641   0.60302    0.84634   1.00
C6       0.01556    0.79490    0.76934   1.00
C6       -0.18568   0.69619    0.81987   1.00
C6       0.13332    0.85517    0.78420   1.00
C6       -0.28615   0.58198    0.81137   1.00
H2       0.14713    0.75950    0.76132   1.00
H2       -0.25862   0.54864    0.84949   1.00
H2       0.06607    0.72114    0.74977   1.00
H2       -0.19151   0.63056    0.85590   1.00
H2       0.12387    0.80811    0.74583   1.00
H2       -0.27319   0.61810    0.85104   1.00
H2       0.03195    0.83649    0.75844   1.00
H2       -0.22107   0.71393    0.82377   1.00
H2       -0.02427   0.74880    0.76212   1.00
H2       -0.14019   0.72467    0.82917   1.00
H2       -0.00659   0.80640    0.78238   1.00
H2       -0.17120   0.70864    0.80400   1.00
H2       0.17772    0.85166    0.78889   1.00
H2       -0.31176   0.52685    0.81361   1.00
H2       0.15014    0.89505    0.77270   1.00
H2       -0.32126   0.59918    0.81614   1.00
H2       0.11563    0.87155    0.79729   1.00
H2       -0.27695   0.59209    0.79516   1.00
C4       0.48023    0.49853    0.81548   1.00
C4       0.50573    0.47018    0.83007   1.00
C3       0.50688    0.57012    0.81352   1.00
C3       0.56418    0.51143    0.84222   1.00
C3       0.42593    0.45436    0.80223   1.00
C3       0.47221    0.39790    0.83279   1.00
C2       0.43096    0.55609    0.78532   1.00
C2       0.55539    0.41313    0.86027   1.00
C3       0.48332    0.59816    0.79885   1.00
C3       0.58815    0.48393    0.85694   1.00
C3       0.40365    0.48498    0.78742   1.00
C3       0.49801    0.37195    0.84802   1.00
H1       0.54394    0.60454    0.82282   1.00
H1       0.59195    0.56297    0.84070   1.00
C5       0.39511    0.38176    0.80404   1.00
C5       0.41486    0.35357    0.82041   1.00
H1       0.50485    0.65022    0.79817   1.00
H1       0.63040    0.51645    0.86527   1.00
H1       0.36549    0.45528    0.77764   1.00
H1       0.47527    0.32088    0.85050   1.00
C6       0.34280    0.33592    0.78856   1.00
C6       0.37551    0.27788    0.82490   1.00
H2       0.36051    0.35684    0.77345   1.00
H2       0.36796    0.27043    0.84123   1.00
H2       0.34033    0.28684    0.78744   1.00
H2       0.32327    0.25440    0.81947   1.00
C6       0.26950    0.32384    0.79288   1.00
C6       0.40983    0.23827    0.81590   1.00
H2       0.27274    0.37218    0.79695   1.00
H2       0.46470    0.26699    0.81880   1.00
C6       0.21497    0.29024    0.77568   1.00
C6       0.38251    0.16332    0.82330   1.00
H2       0.25016    0.29204    0.80644   1.00
H2       0.40471    0.23763    0.79942   1.00
C6       0.23328    0.33748    0.75689   1.00
C6       0.39779    0.16062    0.84611   1.00
C6       0.20607    0.22063    0.76903   1.00
C6       0.30485    0.11817    0.81957   1.00
C6       0.14534    0.27766    0.78390   1.00
C6       0.41931    0.13238    0.81114   1.00
H2       0.24100    0.38749    0.76113   1.00
H2       0.45212    0.19290    0.84931   1.00
H2       0.27970    0.34512    0.74958   1.00
H2       0.37005    0.17776    0.85567   1.00
H2       0.19272    0.31573    0.74557   1.00
H2       0.38283    0.10876    0.85078   1.00
H2       0.16461    0.19542    0.75810   1.00
H2       0.28724    0.06503    0.82342   1.00
H2       0.25230    0.22712    0.76185   1.00
H2       0.27617    0.13495    0.82886   1.00
H2       0.19455    0.18688    0.78206   1.00
H2       0.29253    0.12030    0.80369   1.00
H2       0.14864    0.32544    0.78861   1.00
H2       0.47440    0.16202    0.81343   1.00
H2       0.10559    0.25460    0.77236   1.00
H2       0.40222    0.08006    0.81587   1.00
H2       0.12894    0.24346    0.79696   1.00
H2       0.40933    0.13158    0.79492   1.00
C4       0.30424    0.16453    0.34790   1.00
C4       0.35568    0.18854    0.33256   1.00
C3       0.26394    0.19560    0.35162   1.00
C3       0.36552    0.24050    0.31850   1.00
C3       0.29201    0.10738    0.36014   1.00
C3       0.39934    0.16000    0.33096   1.00
C2       0.19794    0.11396    0.37824   1.00
C2       0.46184    0.23948    0.30216   1.00
C3       0.21216    0.17098    0.36625   1.00
C3       0.41715    0.26551    0.30382   1.00
C3       0.23855    0.08365    0.37481   1.00
C3       0.45154    0.18717    0.31588   1.00
H1       0.27116    0.23771    0.34399   1.00
H1       0.33510    0.26164    0.31827   1.00
C5       0.33285    0.07576    0.35768   1.00
C5       0.39005    0.10559    0.34413   1.00
H1       0.18473    0.19550    0.36815   1.00
H1       0.42176    0.30323    0.29419   1.00
H1       0.22801    0.04287    0.38371   1.00
H1       0.48388    0.16852    0.31437   1.00
C6       0.31465    0.01101    0.36920   1.00
C6       0.44105    0.08090    0.34373   1.00
H2       0.25964    -0.02302   0.36855   1.00
H2       0.49243    0.12486    0.34315   1.00
H2       0.33321    -0.01904   0.36154   1.00
H2       0.44208    0.05758    0.35803   1.00
C6       0.34148    0.02438    0.39160   1.00
C6       0.42818    0.02950    0.32606   1.00
H2       0.33165    0.06248    0.39855   1.00
H2       0.41721    0.04811    0.31207   1.00
C6       0.31319    -0.03838   0.40624   1.00
C6       0.48576    0.01240    0.32136   1.00
H2       0.39696    0.04810    0.39108   1.00
H2       0.38145    -0.01807   0.32955   1.00
C6       0.23595    -0.06862   0.41043   1.00
C6       0.55098    0.07542    0.31309   1.00
C6       0.32560    -0.09509   0.39777   1.00
C6       0.50433    -0.01534   0.34033   1.00
C6       0.35105    -0.01438   0.42685   1.00
C6       0.45965    -0.04363   0.30473   1.00
H2       0.22535    -0.02956   0.41611   1.00
H2       0.53938    0.09690    0.29987   1.00
H2       0.20575    -0.09035   0.39676   1.00
H2       0.57449    0.11537    0.32450   1.00
H2       0.21778    -0.10924   0.42171   1.00
H2       0.58903    0.06187    0.30854   1.00
H2       0.31015    -0.13641   0.40872   1.00
H2       0.54092    -0.03166   0.33655   1.00
H2       0.29629    -0.11706   0.38395   1.00
H2       0.52736    0.02375    0.35202   1.00
H2       0.37944    -0.07480   0.39429   1.00
H2       0.45903    -0.05890   0.34670   1.00
H2       0.34334    0.02528    0.43361   1.00
H2       0.44647    -0.02632   0.29089   1.00
H2       0.33270    -0.05644   0.43766   1.00
H2       0.49834    -0.05703   0.30081   1.00
H2       0.40579    0.00627    0.42496   1.00
H2       0.41435    -0.09003   0.30982   1.00
C4       0.86605    0.69467    0.34825   1.00
C4       0.84076    0.64435    0.33258   1.00
C3       0.91109    0.69660    0.36367   1.00
C3       0.86422    0.59702    0.32996   1.00
C3       0.84600    0.74534    0.34879   1.00
C3       0.79012    0.64054    0.31883   1.00
C2       0.91990    0.79841    0.37938   1.00
C2       0.78723    0.54041    0.30151   1.00
C3       0.93753    0.74702    0.37871   1.00
C3       0.83812    0.54638    0.31498   1.00
C3       0.87437    0.79603    0.36430   1.00
C3       0.76459    0.58798    0.30385   1.00
H1       0.92585    0.66103    0.36466   1.00
H1       0.90165    0.59799    0.33872   1.00
C5       0.79856    0.74432    0.33418   1.00
C5       0.76658    0.68861    0.32016   1.00
H1       0.97001    0.74575    0.38935   1.00
H1       0.85698    0.51361    0.31394   1.00
H1       0.86170    0.83317    0.36509   1.00
H1       0.72822    0.58333    0.29389   1.00
C6       0.78345    0.80232    0.33360   1.00
C6       0.70791    0.67953    0.30695   1.00
H2       0.83108    0.85051    0.33514   1.00
H2       0.66846    0.62591    0.30695   1.00
H2       0.76626    0.80774    0.31869   1.00
H2       0.68106    0.70330    0.31364   1.00
C6       0.72963    0.79515    0.34982   1.00
C6       0.73036    0.70749    0.28487   1.00
H2       0.74111    0.77985    0.36435   1.00
H2       0.76565    0.69178    0.27908   1.00
C6       0.72122    0.85877    0.35371   1.00
C6       0.67287    0.68755    0.26867   1.00
H2       0.68018    0.75262    0.34526   1.00
H2       0.76011    0.76307    0.28576   1.00
C6       0.78619    0.91842    0.36336   1.00
C6       0.63493    0.60997    0.26407   1.00
C6       0.70391    0.88383    0.33392   1.00
C6       0.62051    0.70867    0.27544   1.00
C6       0.66150    0.83825    0.36884   1.00
C6       0.70617    0.72559    0.24860   1.00
H2       0.80043    0.90206    0.37720   1.00
H2       0.67065    0.59322    0.25957   1.00
H2       0.82938    0.93824    0.35300   1.00
H2       0.60679    0.58018    0.27725   1.00
H2       0.77818    0.96070    0.36730   1.00
H2       0.59826    0.59732    0.25178   1.00
H2       0.69336    0.92502    0.33702   1.00
H2       0.58350    0.69900    0.26345   1.00
H2       0.74632    0.90328    0.32325   1.00
H2       0.59223    0.67985    0.28875   1.00
H2       0.65915    0.84240    0.32659   1.00
H2       0.64607    0.76283    0.27918   1.00
H2       0.67151    0.82079    0.38319   1.00
H2       0.74316    0.71189    0.24304   1.00
H2       0.65390    0.88123    0.37214   1.00
H2       0.66801    0.71293    0.23675   1.00
H2       0.61379    0.79717    0.36270   1.00
H2       0.73264    0.78075    0.25077   1.00
C4       0.82907    0.13418    0.34819   1.00
C4       0.80416    0.15963    0.33252   1.00
C3       0.78529    0.08632    0.36295   1.00
C3       0.73321    0.13375    0.32922   1.00
C3       0.90035    0.15698    0.34938   1.00
C3       0.85127    0.21291    0.31949   1.00
C2       0.87891    0.08014    0.37927   1.00
C2       0.75380    0.21333    0.30149   1.00
C3       0.80927    0.05980    0.37797   1.00
C3       0.70869    0.15992    0.31426   1.00
C3       0.92266    0.12844    0.36484   1.00
C3       0.82422    0.23841    0.30450   1.00
H1       0.73443    0.06945    0.36347   1.00
H1       0.69668    0.09445    0.33744   1.00
C5       0.94731    0.20724    0.33547   1.00
C5       0.92320    0.23905    0.32152   1.00
H1       0.77504    0.02523    0.38812   1.00
H1       0.65692    0.13924    0.31271   1.00
H1       0.97289    0.14303    0.36610   1.00
H1       0.85611    0.27659    0.29504   1.00
C6       1.02140    0.22548    0.33554   1.00
C6       0.97268    0.30023    0.30910   1.00
H2       1.02406    0.17887    0.33674   1.00
H2       0.95631    0.33803    0.30927   1.00
H2       1.04548    0.24515    0.32092   1.00
H2       1.02235    0.32796    0.31634   1.00
C6       1.06457    0.27812    0.35247   1.00
C6       0.98205    0.28136    0.28692   1.00
H2       1.03599    0.26386    0.36671   1.00
H2       0.93229    0.24527    0.28051   1.00
C6       1.13734    0.28921    0.35694   1.00
C6       1.01964    0.34119    0.27142   1.00
H2       1.06983    0.32722    0.34831   1.00
H2       1.00977    0.25344    0.28778   1.00
C6       1.13385    0.22441    0.36608   1.00
C6       0.97785    0.37689    0.26680   1.00
C6       1.18222    0.31054    0.33760   1.00
C6       1.09145    0.39484    0.27909   1.00
C6       1.17275    0.34740    0.37277   1.00
C6       1.02849    0.31145    0.25117   1.00
H2       1.10158    0.20737    0.37958   1.00
H2       0.92645    0.34017    0.26166   1.00
H2       1.11327    0.18249    0.35525   1.00
H2       0.97324    0.40262    0.28015   1.00
H2       1.18441    0.23408    0.37044   1.00
H2       1.00214    0.41531    0.25496   1.00
H2       1.23424    0.32287    0.34116   1.00
H2       1.11908    0.43371    0.26757   1.00
H2       1.16206    0.26945    0.32647   1.00
H2       1.08795    0.42074    0.29258   1.00
H2       1.18436    0.35525    0.33062   1.00
H2       1.12145    0.37079    0.28285   1.00
H2       1.14341    0.33456    0.38683   1.00
H2       0.97910    0.27369    0.24497   1.00
H2       1.22370    0.35676    0.37649   1.00
H2       1.05417    0.35132    0.23978   1.00
H2       1.17798    0.39499    0.36702   1.00
H2       1.05883    0.28671    0.25335   1.00
C4       0.82588    0.68455    0.85133   1.00
C4       0.79995    0.63086    0.83668   1.00
C3       0.79241    0.72203    0.85592   1.00
C3       0.73528    0.60615    0.82718   1.00
C3       0.88766    0.70219    0.86192   1.00
C3       0.83945    0.60003    0.83116   1.00
C2       0.87648    0.79089    0.88167   1.00
C2       0.74890    0.52458    0.80632   1.00
C3       0.81664    0.77336    0.87069   1.00
C3       0.71058    0.55489    0.81239   1.00
C3       0.91042    0.75453    0.87693   1.00
C3       0.81263    0.54822    0.81595   1.00
H1       0.74952    0.71391    0.84856   1.00
H1       0.70340    0.62402    0.83080   1.00
C5       0.92515    0.66821    0.85735   1.00
C5       0.90365    0.62076    0.84082   1.00
H1       0.79000    0.79831    0.87335   1.00
H1       0.66366    0.53952    0.80605   1.00
H1       0.95387    0.76818    0.88487   1.00
H1       0.83943    0.52541    0.81152   1.00
C6       0.98635    0.68227    0.87015   1.00
C6       0.94816    0.59294    0.83331   1.00
H2       0.97409    0.68313    0.88609   1.00
H2       0.94870    0.59360    0.81678   1.00
H2       0.99599    0.63983    0.86980   1.00
H2       1.00162    0.62715    0.83682   1.00
C6       1.05305    0.74908    0.86385   1.00
C6       0.92642    0.52027    0.84186   1.00
H2       1.04148    0.78993    0.86128   1.00
H2       0.87097    0.48815    0.84107   1.00
C6       1.11535    0.77682    0.87865   1.00
C6       0.95852    0.48023    0.83178   1.00
H2       1.06903    0.74001    0.84909   1.00
H2       0.93864    0.52566    0.85802   1.00
C6       1.10052    0.80135    0.89900   1.00
C6       0.93462    0.46075    0.80950   1.00
C6       1.13623    0.72251    0.88303   1.00
C6       1.03746    0.52154    0.83240   1.00
C6       1.17700    0.83912    0.86857   1.00
C6       0.93474    0.41300    0.84375   1.00
H2       1.08454    0.83895    0.89641   1.00
H2       0.87902    0.43247    0.80850   1.00
H2       1.06035    0.75917    0.90751   1.00
H2       0.95323    0.50574    0.79991   1.00
H2       1.14573    0.82490    0.90864   1.00
H2       0.95343    0.42886    0.80306   1.00
H2       1.18258    0.74385    0.89217   1.00
H2       1.05924    0.49133    0.82666   1.00
H2       1.09634    0.67949    0.89138   1.00
H2       1.05711    0.56720    0.82304   1.00
H2       1.14558    0.70334    0.86892   1.00
H2       1.05561    0.53713    0.84788   1.00
H2       1.16516    0.87938    0.86535   1.00
H2       0.87922    0.38151    0.84361   1.00
H2       1.22176    0.86063    0.87841   1.00
H2       0.95552    0.38295    0.83719   1.00
H2       1.19086    0.82474    0.85430   1.00
H2       0.95130    0.42342    0.85954   1.00
C4       0.30584    0.13350    0.84841   1.00
C4       0.35829    0.15697    0.83340   1.00
C3       0.24590    0.13831    0.84584   1.00
C3       0.35130    0.18019    0.81394   1.00
C3       0.31277    0.10406    0.86681   1.00
C3       0.42043    0.15749    0.83773   1.00
C2       0.19818    0.08303    0.87832   1.00
C2       0.46565    0.20757    0.80338   1.00
C3       0.19350    0.11358    0.86027   1.00
C3       0.40338    0.20506    0.79940   1.00
C3       0.25807    0.07914    0.88107   1.00
C3       0.47236    0.18356    0.82256   1.00
H1       0.23838    0.16059    0.83347   1.00
H1       0.30783    0.17927    0.80952   1.00
C5       0.37323    0.10043    0.87063   1.00
C5       0.42932    0.13207    0.85673   1.00
H1       0.15145    0.11833    0.85747   1.00
H1       0.39527    0.22132    0.78569   1.00
H1       0.26091    0.05745    0.89426   1.00
H1       0.51743    0.18519    0.82513   1.00
C6       0.37676    0.06267    0.88913   1.00
C6       0.49789    0.13963    0.86196   1.00
H2       0.32863    0.01498    0.89068   1.00
H2       0.53802    0.19067    0.85777   1.00
H2       0.41254    0.04445    0.88699   1.00
H2       0.50513    0.13983    0.87826   1.00
C6       0.39581    0.10628    0.90903   1.00
C6       0.50949    0.08319    0.85214   1.00
H2       0.36677    0.13290    0.90981   1.00
H2       0.49283    0.07571    0.83632   1.00
C6       0.38621    0.06826    0.92966   1.00
C6       0.58347    0.09424    0.85270   1.00
H2       0.44913    0.14645    0.90781   1.00
H2       0.47541    0.03496    0.85970   1.00
C6       0.30991    0.01759    0.93415   1.00
C6       0.63335    0.15598    0.83952   1.00
C6       0.42642    0.02949    0.93011   1.00
C6       0.61133    0.10450    0.87465   1.00
C6       0.41381    0.12190    0.94699   1.00
C6       0.58168    0.02979    0.84387   1.00
H2       0.27991    0.04320    0.93362   1.00
H2       0.61455    0.15081    0.82399   1.00
H2       0.28825    -0.02402   0.92322   1.00
H2       0.64031    0.20374    0.84561   1.00
H2       0.30337    -0.00511   0.94917   1.00
H2       0.68355    0.16039    0.83887   1.00
H2       0.42336    0.00726    0.94504   1.00
H2       0.66085    0.10727    0.87502   1.00
H2       0.40591    -0.01202   0.91912   1.00
H2       0.61804    0.15179    0.88111   1.00
H2       0.48008    0.06374    0.92658   1.00
H2       0.57643    0.06240    0.88436   1.00
H2       0.38657    0.15031    0.94748   1.00
H2       0.56300    0.02062    0.82827   1.00
H2       0.40781    0.09772    0.96176   1.00
H2       0.63239    0.03524    0.84382   1.00
H2       0.46793    0.15841    0.94489   1.00
H2       0.54832    -0.01541   0.85280   1.00
C4       0.86599    0.17125    0.84823   1.00
C4       0.84270    0.20014    0.83313   1.00
C3       0.85324    0.10303    0.84700   1.00
C3       0.81141    0.16546    0.81476   1.00
C3       0.90346    0.21134    0.86533   1.00
C3       0.85068    0.26623    0.83627   1.00
C2       0.91594    0.11385    0.87824   1.00
C2       0.79256    0.25707    0.80304   1.00
C3       0.87768    0.07520    0.86147   1.00
C3       0.78676    0.19280    0.80019   1.00
C3       0.92778    0.18122    0.87968   1.00
C3       0.82454    0.29210    0.82111   1.00
H1       0.82513    0.07077    0.83565   1.00
H1       0.80597    0.11933    0.81117   1.00
C5       0.91543    0.27938    0.86784   1.00
C5       0.88435    0.30482    0.85408   1.00
H1       0.86697    0.02576    0.85968   1.00
H1       0.76445    0.16511    0.78729   1.00
H1       0.95501    0.20827    0.89196   1.00
H1       0.82884    0.33870    0.82286   1.00
C6       0.96125    0.32365    0.88481   1.00
C6       0.88596    0.37138    0.85823   1.00
H2       1.00619    0.31790    0.88556   1.00
H2       0.83576    0.36484    0.85513   1.00
H2       0.98380    0.37759    0.88133   1.00
H2       0.89173    0.38360    0.87430   1.00
C6       0.92403    0.30896    0.90581   1.00
C6       0.94336    0.43320    0.84621   1.00
H2       0.89302    0.25390    0.90810   1.00
H2       0.94429    0.41800    0.83053   1.00
C6       0.96928    0.34031    0.92514   1.00
C6       0.94048    0.50084    0.84573   1.00
H2       0.88767    0.32727    0.90501   1.00
H2       0.99238    0.44447    0.85264   1.00
C6       1.01502    0.30858    0.92925   1.00
C6       0.87735    0.49194    0.83388   1.00
C6       1.01469    0.41877    0.92342   1.00
C6       0.93986    0.52703    0.86740   1.00
C6       0.92171    0.32451    0.94377   1.00
C6       1.00504    0.55632    0.83467   1.00
H2       0.98456    0.25307    0.93022   1.00
H2       0.87569    0.47242    0.81862   1.00
H2       1.05269    0.32131    0.91730   1.00
H2       0.83001    0.45662    0.84153   1.00
H2       1.04280    0.32724    0.94350   1.00
H2       0.87830    0.54041    0.83242   1.00
H2       1.04235    0.44063    0.93752   1.00
H2       0.94277    0.57660    0.86691   1.00
H2       1.05236    0.43260    0.91138   1.00
H2       0.89310    0.49198    0.87539   1.00
H2       0.98385    0.44226    0.92010   1.00
H2       0.98303    0.53237    0.87621   1.00
H2       0.88895    0.26959    0.94580   1.00
H2       1.00758    0.54064    0.81918   1.00
H2       0.95102    0.34504    0.95770   1.00
H2       1.00514    0.60453    0.83383   1.00
H2       0.88901    0.34681    0.94196   1.00
H2       1.05139    0.56593    0.84256   1.00
C4       0.01814    0.49803    0.31542   1.00
C4       -0.03438   0.47361    0.33043   1.00
C3       0.02364    0.45392    0.30109   1.00
C3       -0.08907   0.40486    0.33082   1.00
C3       0.06756    0.56910    0.31451   1.00
C3       -0.03302   0.51901    0.34575   1.00
C2       0.12232    0.54780    0.28443   1.00
C2       -0.13877   0.42333    0.36137   1.00
C3       0.07387    0.47796    0.28599   1.00
C3       -0.13954   0.38028    0.34585   1.00
C3       0.11767    0.59157    0.29883   1.00
C3       -0.08517   0.49186    0.36085   1.00
H1       -0.00824   0.40258    0.30121   1.00
H1       -0.09467   0.37023    0.32007   1.00
C5       0.06637    0.61557    0.32906   1.00
C5       0.01915    0.58948    0.34565   1.00
H1       0.07493    0.44357    0.27606   1.00
H1       -0.17748   0.33008    0.34533   1.00
H1       0.15339    0.64178    0.29760   1.00
H1       -0.08567   0.52243    0.37206   1.00
C6       0.11433    0.69146    0.32661   1.00
C6       0.02418    0.63514    0.36313   1.00
H2       0.11509    0.70518    0.31073   1.00
H2       0.01754    0.60794    0.37734   1.00
H2       0.09455    0.72106    0.33390   1.00
H2       0.07559    0.67810    0.36480   1.00
C6       0.18793    0.71569    0.33481   1.00
C6       -0.02689   0.66260    0.36131   1.00
H2       0.20441    0.68009    0.32990   1.00
H2       -0.07697   0.62114    0.35670   1.00
C6       0.24546    0.78941    0.32909   1.00
C6       -0.03709   0.69745    0.38045   1.00
H2       0.18494    0.71164    0.35134   1.00
H2       -0.00975   0.69909    0.34879   1.00
C6       0.26067    0.79642    0.30600   1.00
C6       -0.07173   0.64588    0.39804   1.00
C6       0.22703    0.84386    0.33572   1.00
C6       0.03137    0.75778    0.38801   1.00
C6       0.31192    0.80447    0.34027   1.00
C6       -0.08457   0.72592    0.37465   1.00
H2       0.27279    0.75793    0.30077   1.00
H2       -0.11972   0.60208    0.39309   1.00
H2       0.21730    0.79060    0.29725   1.00
H2       -0.03915   0.62693    0.40373   1.00
H2       0.30394    0.84644    0.30236   1.00
H2       -0.08290   0.66949    0.41078   1.00
H2       0.26941    0.89526    0.33298   1.00
H2       0.02315    0.78472    0.40043   1.00
H2       0.18324    0.83846    0.32726   1.00
H2       0.06502    0.73991    0.39359   1.00
H2       0.21468    0.83911    0.35185   1.00
H2       0.05751    0.79415    0.37579   1.00
H2       0.32762    0.76779    0.33595   1.00
H2       -0.13403   0.68515    0.36940   1.00
H2       0.35383    0.85535    0.33664   1.00
H2       -0.09362   0.75042    0.38760   1.00
H2       0.30483    0.80166    0.35669   1.00
H2       -0.06223   0.76372    0.36256   1.00
C4       0.48045    0.98155    0.31552   1.00
C4       0.50849    1.03386    0.33060   1.00
C3       0.43619    0.98019    0.29994   1.00
C3       0.50009    1.09213    0.32990   1.00
C3       0.49666    0.92809    0.31583   1.00
C3       0.54662    1.02858    0.34709   1.00
C2       0.42640    0.87766    0.28444   1.00
C2       0.56231    1.13800    0.36160   1.00
C3       0.41020    0.93008    0.28480   1.00
C3       0.52583    1.14250    0.34497   1.00
C3       0.46944    0.87824    0.30007   1.00
C3       0.57166    1.08079    0.36218   1.00
H1       0.42063    1.01517    0.29912   1.00
H1       0.47554    1.10050    0.31832   1.00
C5       0.53864    0.92514    0.33163   1.00
C5       0.55921    0.97257    0.34815   1.00
H1       0.37876    0.93211    0.27393   1.00
H1       0.51781    1.18314    0.34363   1.00
H1       0.48020    0.83970    0.29969   1.00
H1       0.59860    1.07859    0.37420   1.00
C6       0.56129    0.87261    0.33056   1.00
C6       0.59327    0.96379    0.36676   1.00
H2       0.57716    0.87052    0.31510   1.00
H2       0.57111    0.97268    0.38028   1.00
H2       0.60826    0.88882    0.33894   1.00
H2       0.58015    0.91100    0.36884   1.00
C6       0.50581    0.80043    0.33831   1.00
C6       0.67287    1.00991    0.36647   1.00
H2       0.45602    0.78793    0.33218   1.00
H2       0.68670    1.06127    0.36148   1.00
C6       0.51720    0.73898    0.33377   1.00
C6       0.71213    1.01661    0.38666   1.00
H2       0.50128    0.80379    0.35471   1.00
H2       0.69253    0.99020    0.35474   1.00
C6       0.51332    0.72369    0.31072   1.00
C6       0.69522    1.05437    0.40329   1.00
C6       0.58649    0.75166    0.34216   1.00
C6       0.69639    0.94606    0.39483   1.00
C6       0.45976    0.67445    0.34434   1.00
C6       0.78988    1.05919    0.38237   1.00
H2       0.46541    0.71559    0.30427   1.00
H2       0.70474    1.10397    0.39787   1.00
H2       0.55494    0.76543    0.30248   1.00
H2       0.64204    1.02513    0.40795   1.00
H2       0.51658    0.67795    0.30782   1.00
H2       0.72631    1.06298    0.41680   1.00
H2       0.59179    0.70665    0.34021   1.00
H2       0.72765    0.95155    0.40808   1.00
H2       0.62888    0.79376    0.33423   1.00
H2       0.64315    0.91569    0.39940   1.00
H2       0.59112    0.76396    0.35829   1.00
H2       0.70651    0.91781    0.38326   1.00
H2       0.40964    0.66279    0.33878   1.00
H2       0.80387    1.10990    0.37676   1.00
H2       0.46526    0.62994    0.34149   1.00
H2       0.81955    1.06569    0.39609   1.00
H2       0.46070    0.68158    0.36073   1.00
H2       0.80527    1.03442    0.37103   1.00
C4       0.50114    0.51957    0.31552   1.00
C4       0.52541    0.49153    0.33059   1.00
C3       0.54410    0.56404    0.29998   1.00
C3       0.59218    0.50015    0.32994   1.00
C3       0.43140    0.50313    0.31578   1.00
C3       0.48192    0.45316    0.34704   1.00
C2       0.45131    0.57364    0.28444   1.00
C2       0.57574    0.43770    0.36159   1.00
C3       0.51999    0.59005    0.28484   1.00
C3       0.61681    0.47441    0.34500   1.00
C3       0.40877    0.53037    0.30002   1.00
C3       0.50909    0.42812    0.36212   1.00
H1       0.59468    0.57976    0.29920   1.00
H1       0.62518    0.52489    0.31838   1.00
C5       0.38640    0.46093    0.33153   1.00
C5       0.41323    0.44034    0.34806   1.00
H1       0.55350    0.62165    0.27401   1.00
H1       0.66554    0.48260    0.34369   1.00
H1       0.35944    0.51947    0.29961   1.00
H1       0.47989    0.40102    0.37412   1.00
C6       0.31119    0.43807    0.33041   1.00
C6       0.37027    0.40601    0.36662   1.00
H2       0.29339    0.42230    0.31493   1.00
H2       0.40116    0.42812    0.38017   1.00
H2       0.28045    0.39098    0.33875   1.00
H2       0.33045    0.41895    0.36869   1.00
C6       0.29419    0.49331    0.33818   1.00
C6       0.33701    0.32644    0.36627   1.00
H2       0.33141    0.54320    0.33210   1.00
H2       0.37471    0.31281    0.36129   1.00
C6       0.22130    0.48173    0.33360   1.00
C6       0.30435    0.28694    0.38642   1.00
H2       0.30191    0.49771    0.35459   1.00
H2       0.29775    0.30678    0.35451   1.00
C6       0.21005    0.48576    0.31054   1.00
C6       0.35891    0.30387    0.40309   1.00
C6       0.16475    0.41228    0.34191   1.00
C6       0.24931    0.30239    0.39457   1.00
C6       0.21389    0.53893    0.34419   1.00
C6       0.26943    0.20925    0.38208   1.00
H2       0.24983    0.53380    0.30414   1.00
H2       0.39914    0.29456    0.39769   1.00
H2       0.21040    0.44430    0.30228   1.00
H2       0.38265    0.35699    0.40779   1.00
H2       0.16101    0.48237    0.30762   1.00
H2       0.33636    0.27262    0.41657   1.00
H2       0.11440    0.40683    0.33994   1.00
H2       0.22349    0.27097    0.40779   1.00
H2       0.16469    0.37004    0.33397   1.00
H2       0.27199    0.35557    0.39918   1.00
H2       0.17230    0.40753    0.35804   1.00
H2       0.21101    0.29225    0.38298   1.00
H2       0.25229    0.58916    0.33868   1.00
H2       0.30632    0.19547    0.37647   1.00
H2       0.16384    0.53330    0.34132   1.00
H2       0.24620    0.17942    0.39576   1.00
H2       0.21994    0.53787    0.36059   1.00
H2       0.22936    0.19385    0.37070   1.00
C4       0.16634    0.31422    0.14907   1.00
C4       0.19423    0.36822    0.16362   1.00
C3       0.09716    0.26049    0.14977   1.00
C3       0.15330    0.37622    0.17856   1.00
C3       0.20852    0.31303    0.13312   1.00
C3       0.26566    0.41661    0.16342   1.00
C2       0.10897    0.20681    0.11908   1.00
C2       0.25109    0.47542    0.19368   1.00
C3       0.06915    0.20856    0.13520   1.00
C3       0.18079    0.42792    0.19321   1.00
C3       0.17792    0.25945    0.11851   1.00
C3       0.29170    0.46829    0.17867   1.00
H1       0.06471    0.25669    0.16102   1.00
H1       0.10187    0.34517    0.17924   1.00
C5       0.27928    0.36414    0.13211   1.00
C5       0.30899    0.41289    0.14821   1.00
H1       0.01883    0.17144    0.13651   1.00
H1       0.14858    0.43077    0.20363   1.00
H1       0.20615    0.25714    0.10687   1.00
H1       0.34229    0.50334    0.17911   1.00
C6       0.32144    0.36644    0.11398   1.00
C6       0.38541    0.45985    0.14949   1.00
H2       0.29197    0.35897    0.10019   1.00
H2       0.40173    0.46185    0.16514   1.00
H2       0.36472    0.41724    0.11160   1.00
H2       0.41292    0.43844    0.14180   1.00
C6       0.34771    0.31434    0.11548   1.00
C6       0.40957    0.53290    0.14081   1.00
H2       0.30645    0.26513    0.12077   1.00
H2       0.37565    0.55087    0.14621   1.00
C6       0.37856    0.30133    0.09588   1.00
C6       0.48464    0.58989    0.14537   1.00
H2       0.38630    0.33204    0.12742   1.00
H2       0.40263    0.52834    0.12438   1.00
C6       0.32382    0.26580    0.07912   1.00
C6       0.49591    0.60737    0.16830   1.00
C6       0.43835    0.36840    0.08734   1.00
C6       0.53682    0.56933    0.13798   1.00
C6       0.40660    0.25323    0.10133   1.00
C6       0.49906    0.65564    0.13387   1.00
H2       0.28036    0.21879    0.08477   1.00
H2       0.45909    0.62103    0.17406   1.00
H2       0.30486    0.29862    0.07366   1.00
H2       0.49070    0.56451    0.17720   1.00
H2       0.34467    0.25270    0.06607   1.00
H2       0.54690    0.65031    0.17114   1.00
H2       0.46261    0.35824    0.07456   1.00
H2       0.58900    0.61125    0.13990   1.00
H2       0.42050    0.40230    0.08197   1.00
H2       0.53197    0.52601    0.14658   1.00
H2       0.47697    0.39517    0.09897   1.00
H2       0.52905    0.55538    0.12197   1.00
H2       0.36615    0.20469    0.10725   1.00
H2       0.46396    0.67279    0.13869   1.00
H2       0.42834    0.24224    0.08806   1.00
H2       0.55087    0.69718    0.13669   1.00
H2       0.44652    0.27611    0.11282   1.00
H2       0.49328    0.64693    0.11753   1.00
C4       0.69404    0.86657    0.15155   1.00
C4       0.64378    0.84167    0.16725   1.00
C3       0.69062    0.90351    0.13453   1.00
C3       0.59070    0.85802    0.16812   1.00
C3       0.75018    0.85447    0.15267   1.00
C3       0.64595    0.79878    0.18280   1.00
C2       0.79743    0.91986    0.12032   1.00
C2       0.54013    0.78863    0.19840   1.00
C3       0.74084    0.92968    0.11942   1.00
C3       0.54021    0.83211    0.18315   1.00
C3       0.80044    0.88231    0.13703   1.00
C3       0.59335    0.77314    0.19777   1.00
H1       0.65115    0.91219    0.13236   1.00
H1       0.58712    0.88993    0.15798   1.00
C5       0.75488    0.81517    0.16900   1.00
C5       0.69979    0.78286    0.18321   1.00
H1       0.73555    0.95611    0.10757   1.00
H1       0.50315    0.84561    0.18289   1.00
H1       0.84134    0.87518    0.13737   1.00
H1       0.59289    0.74213    0.20900   1.00
C6       0.81811    0.80894    0.17115   1.00
C6       0.69741    0.73170    0.19845   1.00
H2       0.86305    0.85873    0.16861   1.00
H2       0.64572    0.68827    0.19906   1.00
H2       0.82577    0.79854    0.18673   1.00
H2       0.72607    0.70784    0.19326   1.00
C6       0.81765    0.75309    0.15700   1.00
C6       0.72375    0.76314    0.22001   1.00
H2       0.80026    0.75705    0.14186   1.00
H2       0.70256    0.79557    0.22412   1.00
C6       0.88606    0.75236    0.15456   1.00
C6       0.70969    0.71261    0.23798   1.00
H2       0.77888    0.70333    0.16272   1.00
H2       0.77876    0.79759    0.21893   1.00
C6       0.94105    0.81706    0.14348   1.00
C6       0.63240    0.66894    0.24269   1.00
C6       0.91442    0.74595    0.17532   1.00
C6       0.73879    0.66482    0.23365   1.00
C6       0.87220    0.68966    0.14149   1.00
C6       0.74534    0.75476    0.25729   1.00
H2       0.92218    0.82366    0.12890   1.00
H2       0.61006    0.70120    0.24549   1.00
H2       0.95634    0.86286    0.15244   1.00
H2       0.60469    0.63484    0.23018   1.00
H2       0.98684    0.81390    0.14060   1.00
H2       0.62346    0.63734    0.25611   1.00
H2       0.95937    0.74058    0.17336   1.00
H2       0.73306    0.63320    0.24683   1.00
H2       0.92942    0.79108    0.18461   1.00
H2       0.71214    0.63068    0.22103   1.00
H2       0.87617    0.70155    0.18362   1.00
H2       0.79287    0.69429    0.22988   1.00
H2       0.85271    0.69204    0.12654   1.00
H2       0.72606    0.78894    0.26115   1.00
H2       0.91868    0.68717    0.13924   1.00
H2       0.73660    0.72165    0.27033   1.00
H2       0.83472    0.64219    0.14873   1.00
H2       0.80034    0.78570    0.25506   1.00
C4       0.13419    0.82908    0.15181   1.00
C4       0.15964    0.80418    0.16748   1.00
C3       0.08626    0.78529    0.13707   1.00
C3       0.13371    0.73323    0.17079   1.00
C3       0.15706    0.90037    0.15060   1.00
C3       0.21298    0.85129    0.18049   1.00
C2       0.08015    0.87892    0.12073   1.00
C2       0.21334    0.75382    0.19851   1.00
C3       0.05974    0.80927    0.12205   1.00
C3       0.15988    0.70870    0.18576   1.00
C3       0.12851    0.92268    0.13514   1.00
C3       0.23848    0.82423    0.19548   1.00
H1       0.06934    0.73441    0.13656   1.00
H1       0.09436    0.69669    0.16259   1.00
C5       0.20738    0.94734    0.16450   1.00
C5       0.23919    0.92322    0.17845   1.00
H1       0.02511    0.77503    0.11191   1.00
H1       0.13914    0.65693    0.18733   1.00
H1       0.14314    0.97292    0.13388   1.00
H1       0.27671    0.85613    0.20493   1.00
C6       0.22569    1.02145    0.16441   1.00
C6       0.30042    0.97269    0.19085   1.00
H2       0.17911    1.02417    0.16322   1.00
H2       0.33819    0.95628    0.19067   1.00
H2       0.24543    1.04557    0.17902   1.00
H2       0.32817    1.02235    0.18359   1.00
C6       0.27830    1.06454    0.14746   1.00
C6       0.28164    0.98216    0.21303   1.00
H2       0.26397    1.03592    0.13323   1.00
H2       0.24554    0.93243    0.21945   1.00
C6       0.28946    1.13732    0.14298   1.00
C6       0.34153    1.01976    0.22851   1.00
H2       0.32740    1.06975    0.15161   1.00
H2       0.25377    1.00993    0.21217   1.00
C6       0.22466    1.13387    0.13385   1.00
C6       0.37718    0.97791    0.23313   1.00
C6       0.31089    1.18226    0.16230   1.00
C6       0.39521    1.09151    0.22082   1.00
C6       0.34760    1.17264    0.12714   1.00
C6       0.31188    1.02870    0.24877   1.00
H2       0.20755    1.10157    0.12036   1.00
H2       0.34043    0.92654    0.23828   1.00
H2       0.18278    1.11337    0.14469   1.00
H2       0.40284    0.97323    0.21978   1.00
H2       0.23438    1.18444    0.12948   1.00
H2       0.41564    1.00220    0.24496   1.00
H2       0.32326    1.23428    0.15874   1.00
H2       0.43412    1.11915    0.23232   1.00
H2       0.26983    1.16217    0.17344   1.00
H2       0.42105    1.08794    0.20732   1.00
H2       0.35560    1.18437    0.16927   1.00
H2       0.37120    1.12156    0.21705   1.00
H2       0.33470    1.14326    0.11308   1.00
H2       0.27411    0.97935    0.25498   1.00
H2       0.35702    1.22360    0.12340   1.00
H2       0.35180    1.05438    0.26014   1.00
H2       0.39519    1.17783    0.13287   1.00
H2       0.28719    1.05908    0.24658   1.00
C4       0.98196    0.50231    0.68461   1.00
C4       1.03573    0.53084    0.66999   1.00
C3       0.94140    0.43071    0.68789   1.00
C3       1.05736    0.49048    0.65918   1.00
C3       0.96742    0.54630    0.69651   1.00
C3       1.06981    0.60239    0.66585   1.00
C2       0.87542    0.44473    0.71486   1.00
C2       1.14218    0.58791    0.63971   1.00
C3       0.88996    0.40269    0.70261   1.00
C3       1.10871    0.51796    0.64443   1.00
C3       0.91485    0.51575    0.71142   1.00
C3       1.12159    0.62831    0.65063   1.00
H1       0.94726    0.39618    0.67957   1.00
H1       1.03708    0.43972    0.66178   1.00
C5       1.00461    0.61863    0.69331   1.00
C5       1.05224    0.64608    0.67685   1.00
H1       0.86271    0.35065    0.70429   1.00
H1       1.12177    0.48609    0.63711   1.00
H1       0.90333    0.54538    0.72028   1.00
H1       1.14666    0.67883    0.64716   1.00
C6       0.99370    0.66502    0.70744   1.00
C6       1.08353    0.72028    0.67082   1.00
H2       0.99198    0.64815    0.72302   1.00
H2       1.08299    0.72378    0.65434   1.00
H2       1.03791    0.71605    0.70785   1.00
H2       1.05149    0.74124    0.67525   1.00
C6       0.92899    0.67014    0.70204   1.00
C6       1.15691    0.76645    0.67967   1.00
H2       0.88632    0.61931    0.69870   1.00
H2       1.18666    0.74083    0.67787   1.00
C6       0.90407    0.70399    0.71804   1.00
C6       1.20005    0.84030    0.67091   1.00
H2       0.93936    0.69850    0.68784   1.00
H2       1.15199    0.77026    0.69604   1.00
C6       0.87784    0.66063    0.73766   1.00
C6       1.21881    0.83946    0.64832   1.00
C6       0.96112    0.77700    0.72358   1.00
C6       1.16225    0.88116    0.67302   1.00
C6       0.84372    0.70911    0.70879   1.00
C6       1.26770    0.87837    0.68306   1.00
H2       0.83823    0.60842    0.73422   1.00
H2       1.24460    0.81003    0.64627   1.00
H2       0.91877    0.65840    0.74564   1.00
H2       1.17371    0.81711    0.63868   1.00
H2       0.85624    0.68212    0.74813   1.00
H2       1.25276    0.89101    0.64276   1.00
H2       0.94187    0.80191    0.73361   1.00
H2       1.19465    0.93397    0.66821   1.00
H2       1.00295    0.77592    0.73142   1.00
H2       1.11652    0.85915    0.66363   1.00
H2       0.98148    0.80820    0.70998   1.00
H2       1.14720    0.88133    0.68873   1.00
H2       0.80163    0.65871    0.70479   1.00
H2       1.29679    0.85194    0.68190   1.00
H2       0.82419    0.73207    0.71947   1.00
H2       1.29988    0.93019    0.67740   1.00
H2       0.85942    0.74033    0.69508   1.00
H2       1.25787    0.88186    0.69910   1.00
C4       0.51975    0.01832    0.68452   1.00
C4       0.49423    -0.03554   0.66993   1.00
C3       0.49328    0.06342    0.68642   1.00
C3       0.43593    -0.05257   0.65772   1.00
C3       0.57388    0.02829    0.69781   1.00
C3       0.52759    -0.07447   0.66726   1.00
C2       0.56903    0.12517    0.71468   1.00
C2       0.44457    -0.14225   0.63973   1.00
C3       0.51684    0.11503    0.70110   1.00
C3       0.41196    -0.10404   0.64300   1.00
C3       0.59616    0.08119    0.71262   1.00
C3       0.50180    -0.12622   0.65203   1.00
H1       0.45635    0.06090    0.67709   1.00
H1       0.40828    -0.02866   0.65921   1.00
C5       0.60452    -0.01367   0.69606   1.00
C5       0.58479    -0.06161   0.67970   1.00
H1       0.49545    0.14568    0.70174   1.00
H1       0.36982    -0.11365   0.63464   1.00
H1       0.63421    0.08955    0.72244   1.00
H1       0.52443    -0.15467   0.64959   1.00
C6       0.65663    -0.00737   0.71159   1.00
C6       0.62399    -0.09815   0.67526   1.00
H2       0.63883    -0.00409   0.72668   1.00
H2       0.63167    -0.09807   0.65894   1.00
H2       0.65894    -0.05405   0.71274   1.00
H2       0.67619    -0.06951   0.68073   1.00
C6       0.73005    0.05371    0.70731   1.00
C6       0.58940    -0.17209   0.68426   1.00
H2       0.72700    0.09890    0.70322   1.00
H2       0.53456    -0.19810   0.68132   1.00
C6       0.78441    0.07451    0.72456   1.00
C6       0.61659    -0.21989   0.67691   1.00
H2       0.74943    0.04118    0.69378   1.00
H2       0.59438    -0.16762   0.70075   1.00
C6       0.76607    0.10354    0.74331   1.00
C6       0.60147    -0.23784   0.65409   1.00
C6       0.79303    0.01365    0.73124   1.00
C6       0.69419    -0.18759   0.68071   1.00
C6       0.85418    0.13141    0.71638   1.00
C6       0.57952    -0.28762   0.68907   1.00
H2       0.75854    0.14592    0.73904   1.00
H2       0.54718    -0.25975   0.65085   1.00
H2       0.71953    0.06484    0.75060   1.00
H2       0.62939    -0.19298   0.64455   1.00
H2       0.80652    0.12224    0.75467   1.00
H2       0.61632    -0.27486   0.64946   1.00
H2       0.83439    0.02980    0.74221   1.00
H2       0.71168    -0.22323   0.67689   1.00
H2       0.74669    -0.02600   0.73840   1.00
H2       0.72305    -0.14214   0.67142   1.00
H2       0.80457    -0.00865   0.71824   1.00
H2       0.70640    -0.17315   0.69659   1.00
H2       0.85108    0.17598    0.71164   1.00
H2       0.52445    -0.31293   0.68674   1.00
H2       0.89383    0.14800    0.72796   1.00
H2       0.59650    -0.32297   0.68437   1.00
H2       0.87062    0.11354    0.70335   1.00
H2       0.58937    -0.27845   0.70529   1.00
C4       0.49853    0.48022    0.68452   1.00
C4       0.47017    0.50573    0.66993   1.00
C3       0.57011    0.50689    0.68648   1.00
C3       0.51143    0.56419    0.65778   1.00
C3       0.45436    0.42592    0.69777   1.00
C3       0.39789    0.47220    0.66721   1.00
C2       0.55609    0.43096    0.71468   1.00
C2       0.41312    0.55539    0.63973   1.00
C3       0.59816    0.48333    0.70115   1.00
C3       0.48393    0.58816    0.64306   1.00
C3       0.48498    0.40364    0.71258   1.00
C3       0.37195    0.49800    0.65198   1.00
H1       0.60454    0.54396    0.67719   1.00
H1       0.56297    0.59196    0.65931   1.00
C5       0.38175    0.39508    0.69595   1.00
C5       0.35357    0.41483    0.67959   1.00
H1       0.65022    0.50487    0.70184   1.00
H1       0.51645    0.63042    0.63473   1.00
H1       0.45528    0.36546    0.72235   1.00
H1       0.32088    0.47525    0.64950   1.00
C6       0.33591    0.34276    0.71143   1.00
C6       0.27788    0.37547    0.67509   1.00
H2       0.35682    0.36046    0.72654   1.00
H2       0.27044    0.36794    0.65876   1.00
H2       0.28683    0.34028    0.71255   1.00
H2       0.25441    0.32323    0.68052   1.00
C6       0.32385    0.26947    0.70710   1.00
C6       0.23825    0.40978    0.68408   1.00
H2       0.37220    0.27273    0.70304   1.00
H2       0.26696    0.46465    0.68119   1.00
C6       0.29025    0.21492    0.72431   1.00
C6       0.16330    0.38244    0.67668   1.00
H2       0.29206    0.25013    0.69354   1.00
H2       0.23761    0.40465    0.70057   1.00
C6       0.33748    0.23323    0.74310   1.00
C6       0.16062    0.39774    0.65387   1.00
C6       0.22063    0.20601    0.73095   1.00
C6       0.11817    0.30479    0.68041   1.00
C6       0.27769    0.14531    0.71608   1.00
C6       0.13234    0.41922    0.68884   1.00
H2       0.38750    0.24097    0.73886   1.00
H2       0.19289    0.45207    0.65068   1.00
H2       0.34510    0.27965    0.75041   1.00
H2       0.17777    0.37001    0.64432   1.00
H2       0.31573    0.19267    0.75441   1.00
H2       0.10875    0.38277    0.64920   1.00
H2       0.19542    0.16454    0.74188   1.00
H2       0.06503    0.28717    0.67655   1.00
H2       0.22710    0.25223    0.73814   1.00
H2       0.13496    0.27612    0.67112   1.00
H2       0.18688    0.19449    0.71792   1.00
H2       0.12029    0.29245    0.69629   1.00
H2       0.32548    0.14862    0.71137   1.00
H2       0.16198    0.47432    0.68656   1.00
H2       0.25463    0.10555    0.72762   1.00
H2       0.08003    0.40213    0.68411   1.00
H2       0.24350    0.12890    0.70302   1.00
H2       0.13154    0.40924    0.70506   1.00
C4       0.50241    0.02903    0.18126   1.00
C4       0.47523    -0.02160   0.16568   1.00
C3       0.56380    0.04582    0.19179   1.00
C3       0.51106    -0.05377   0.15809   1.00
C3       0.46749    0.06466    0.18673   1.00
C3       0.40983    -0.04138   0.15718   1.00
C2       0.55921    0.13374    0.21206   1.00
C2       0.41888    -0.12639   0.13489   1.00
C3       0.59161    0.09679    0.20665   1.00
C3       0.48371    -0.10481   0.14324   1.00
C3       0.49772    0.11648    0.20187   1.00
C3       0.38363    -0.09383   0.14216   1.00
H1       0.59025    0.02117    0.18920   1.00
H1       0.55867    -0.04083   0.16292   1.00
C5       0.40399    0.04801    0.17726   1.00
C5       0.37260    -0.00879   0.16360   1.00
H1       0.63618    0.10666    0.21363   1.00
H1       0.51201    -0.12620   0.13846   1.00
H1       0.47465    0.14325    0.20607   1.00
H1       0.33711    -0.10960   0.13586   1.00
C6       0.37138    0.09096    0.18162   1.00
C6       0.30050    -0.03519   0.15608   1.00
H2       0.41060    0.14465    0.18135   1.00
H2       0.27290    -0.09072   0.15670   1.00
H2       0.33829    0.08846    0.16931   1.00
H2       0.27110    -0.02280   0.16650   1.00
C6       0.32997    0.07127    0.20196   1.00
C6       0.29739    -0.00846   0.13440   1.00
H2       0.35931    0.06395    0.21386   1.00
H2       0.33443    -0.01164   0.12450   1.00
C6       0.30694    0.12136    0.21028   1.00
C6       0.22690    -0.04377   0.12325   1.00
H2       0.28458    0.02129    0.19984   1.00
H2       0.31484    0.04594    0.13567   1.00
C6       0.36878    0.19057    0.21680   1.00
C6       0.20343    -0.11904   0.11789   1.00
C6       0.26402    0.13429    0.19448   1.00
C6       0.17095    -0.04106   0.13606   1.00
C6       0.26190    0.08885    0.22935   1.00
C6       0.23444    -0.00533   0.10305   1.00
H2       0.40076    0.18311    0.22771   1.00
H2       0.24234    -0.12279   0.10912   1.00
H2       0.40050    0.21823    0.20386   1.00
H2       0.19306    -0.15007   0.13147   1.00
H2       0.35208    0.22332    0.22386   1.00
H2       0.15671    -0.14176   0.10891   1.00
H2       0.24416    0.16529    0.20093   1.00
H2       0.12332    -0.06139   0.12757   1.00
H2       0.29473    0.16138    0.18130   1.00
H2       0.16028    -0.07132   0.14984   1.00
H2       0.22092    0.08625    0.18932   1.00
H2       0.18681    0.01129    0.14039   1.00
H2       0.29010    0.07931    0.24110   1.00
H2       0.27295    -0.00634   0.09331   1.00
H2       0.24489    0.12222    0.23581   1.00
H2       0.18652    -0.02843   0.09462   1.00
H2       0.21659    0.04038    0.22564   1.00
H2       0.24962    0.04791    0.10584   1.00
C4       0.98105    0.48106    0.18432   1.00
C4       1.03308    0.50896    0.16916   1.00
C3       0.98459    0.44432    0.20139   1.00
C3       1.09545    0.50834    0.17109   1.00
C3       0.92284    0.48964    0.18258   1.00
C3       1.02329    0.53892    0.15131   1.00
C2       0.87750    0.42750    0.21551   1.00
C2       1.13693    0.56235    0.13807   1.00
C3       0.93464    0.41861    0.21657   1.00
C3       1.14571    0.53388    0.15599   1.00
C3       0.87328    0.46300    0.19844   1.00
C3       1.07557    0.56402    0.13625   1.00
H1       1.02325    0.43428    0.20332   1.00
H1       1.10698    0.48993    0.18362   1.00
C5       0.91503    0.52367    0.16532   1.00
C5       0.96281    0.54360    0.14891   1.00
H1       0.94030    0.39281    0.22854   1.00
H1       1.18944    0.53168    0.15826   1.00
H1       0.83142    0.46849    0.19781   1.00
H1       1.07026    0.58526    0.12329   1.00
C6       0.85702    0.53876    0.16474   1.00
C6       0.94984    0.56874    0.12905   1.00
H2       0.85273    0.55787    0.17951   1.00
H2       0.96200    0.54518    0.11654   1.00
H2       0.86870    0.58194    0.15498   1.00
H2       0.89579    0.54958    0.12660   1.00
C6       0.78760    0.47617    0.15786   1.00
C6       0.98908    0.64844    0.12723   1.00
H2       0.78018    0.43015    0.16553   1.00
H2       1.04150    0.66895    0.13252   1.00
C6       0.72146    0.48074    0.16098   1.00
C6       0.99182    0.67980    0.10584   1.00
H2       0.79190    0.46750    0.14176   1.00
H2       0.96584    0.66785    0.13787   1.00
C6       0.70547    0.48214    0.18380   1.00
C6       1.03383    0.66366    0.09052   1.00
C6       0.72680    0.54427    0.15036   1.00
C6       0.91946    0.65426    0.09716   1.00
C6       0.66037    0.41642    0.15150   1.00
C6       1.02749    0.75853    0.10801   1.00
H2       0.70247    0.43848    0.19180   1.00
H2       1.08488    0.68007    0.09636   1.00
H2       0.74444    0.52832    0.19117   1.00
H2       1.00933    0.60928    0.08732   1.00
H2       0.65687    0.48054    0.18583   1.00
H2       1.03944    0.68963    0.07610   1.00
H2       0.67874    0.54438    0.15139   1.00
H2       0.92177    0.68009    0.08295   1.00
H2       0.76607    0.59112    0.15740   1.00
H2       0.89378    0.59971    0.09403   1.00
H2       0.73945    0.54528    0.13435   1.00
H2       0.88834    0.66372    0.10785   1.00
H2       0.65389    0.37001    0.15863   1.00
H2       1.07920    0.77931    0.11390   1.00
H2       0.61279    0.41703    0.15342   1.00
H2       1.03106    0.78287    0.09341   1.00
H2       0.66801    0.41328    0.13527   1.00
H2       0.99943    0.77325    0.11834   1.00
C4       0.51958    0.50117    0.18449   1.00
C4       0.49154    0.52545    0.16942   1.00
C3       0.56424    0.54418    0.19998   1.00
C3       0.50036    0.59229    0.17003   1.00
C3       0.50297    0.43137    0.18426   1.00
C3       0.45298    0.48188    0.15301   1.00
C2       0.57367    0.45134    0.21556   1.00
C2       0.43770    0.57577    0.13841   1.00
C3       0.59025    0.52007    0.21512   1.00
C3       0.47461    0.61692    0.15497   1.00
C3       0.53022    0.40875    0.20002   1.00
C3       0.42794    0.50905    0.13792   1.00
H1       0.58010    0.59479    0.20074   1.00
H1       0.52524    0.62536    0.18156   1.00
C5       0.46057    0.38631    0.16855   1.00
C5       0.43996    0.41312    0.15202   1.00
H1       0.62199    0.55362    0.22592   1.00
H1       0.48295    0.66571    0.15625   1.00
H1       0.51919    0.35938    0.20046   1.00
H1       0.40069    0.47979    0.12595   1.00
C6       0.43752    0.31106    0.16972   1.00
C6       0.40541    0.37005    0.13349   1.00
H2       0.42185    0.29340    0.18521   1.00
H2       0.42747    0.40082    0.11992   1.00
H2       0.39036    0.28036    0.16141   1.00
H2       0.41820    0.33012    0.13143   1.00
C6       0.49258    0.29381    0.16193   1.00
C6       0.32586    0.33698    0.13390   1.00
H2       0.54255    0.33099    0.16797   1.00
H2       0.31241    0.37482    0.13886   1.00
C6       0.48083    0.22089    0.16655   1.00
C6       0.28617    0.30424    0.11378   1.00
H2       0.49686    0.30141    0.14551   1.00
H2       0.30621    0.29781    0.14568   1.00
C6       0.48501    0.20979    0.18961   1.00
C6       0.30311    0.35870    0.09708   1.00
C6       0.41125    0.16439    0.15829   1.00
C6       0.30137    0.24901    0.10565   1.00
C6       0.53785    0.21321    0.15593   1.00
C6       0.20853    0.26953    0.11817   1.00
H2       0.53313    0.24953    0.19597   1.00
H2       0.29397    0.39906    0.10247   1.00
H2       0.44367    0.21032    0.19789   1.00
H2       0.35618    0.38228    0.09234   1.00
H2       0.48149    0.16071    0.19256   1.00
H2       0.27174    0.33611    0.08362   1.00
H2       0.40568    0.11400    0.16029   1.00
H2       0.26982    0.22314    0.09245   1.00
H2       0.36914    0.16452    0.16626   1.00
H2       0.35450    0.27153    0.10100   1.00
H2       0.40641    0.17185    0.14216   1.00
H2       0.29122    0.21077    0.11726   1.00
H2       0.58815    0.25157    0.16140   1.00
H2       0.19492    0.30656    0.12377   1.00
H2       0.53209    0.16313    0.15883   1.00
H2       0.17857    0.24625    0.10451   1.00
H2       0.53667    0.21916    0.13954   1.00
H2       0.19312    0.22953    0.12958   1.00
C4       0.69582    0.83519    0.65212   1.00
C4       0.64508    0.80780    0.66766   1.00
C3       0.71642    0.89932    0.64275   1.00
C3       0.61666    0.84561    0.67640   1.00
C3       0.72763    0.79767    0.64548   1.00
C3       0.62133    0.74012    0.67495   1.00
C2       0.80079    0.89218    0.62139   1.00
C2       0.54008    0.75127    0.69839   1.00
C3       0.76752    0.92721    0.62793   1.00
C3       0.56552    0.81821    0.69122   1.00
C3       0.77972    0.82804    0.63042   1.00
C3       0.56892    0.71396    0.68998   1.00
H1       0.69458    0.92787    0.64621   1.00
H1       0.63254    0.89473    0.67247   1.00
C5       0.70702    0.73155    0.65374   1.00
C5       0.65005    0.70060    0.66735   1.00
H1       0.78024    0.97381    0.62182   1.00
H1       0.54694    0.84802    0.69685   1.00
H1       0.80386    0.80314    0.62541   1.00
H1       0.55038    0.66589    0.69544   1.00
C6       0.74603    0.69568    0.64817   1.00
C6       0.61945    0.62666    0.67359   1.00
H2       0.80051    0.73231    0.64867   1.00
H2       0.56405    0.60221    0.67302   1.00
H2       0.74120    0.65941    0.65976   1.00
H2       0.62931    0.59740    0.66240   1.00
C6       0.72421    0.65816    0.62720   1.00
C6       0.64486    0.61750    0.69485   1.00
H2       0.71932    0.69118    0.61605   1.00
H2       0.64441    0.65409    0.70557   1.00
C6       0.77080    0.63243    0.61780   1.00
C6       0.60578    0.54516    0.70485   1.00
H2       0.67286    0.61445    0.62891   1.00
H2       0.69845    0.63191    0.69332   1.00
C6       0.84186    0.69257    0.61185   1.00
C6       0.53165    0.52526    0.71056   1.00
C6       0.78010    0.58426    0.63248   1.00
C6       0.60444    0.48964    0.69081   1.00
C6       0.73638    0.59181    0.59817   1.00
C6       0.64322    0.54645    0.72472   1.00
H2       0.83702    0.72814    0.60174   1.00
H2       0.53078    0.56403    0.72021   1.00
H2       0.87069    0.72092    0.62512   1.00
H2       0.50110    0.51929    0.69714   1.00
H2       0.87221    0.67436    0.60404   1.00
H2       0.50640    0.47697    0.71877   1.00
H2       0.80854    0.56279    0.62526   1.00
H2       0.58143    0.44034    0.69847   1.00
H2       0.80831    0.61157    0.64599   1.00
H2       0.57462    0.48336    0.67717   1.00
H2       0.73076    0.54221    0.63725   1.00
H2       0.65597    0.50313    0.68622   1.00
H2       0.72928    0.62379    0.58718   1.00
H2       0.64496    0.58443    0.73529   1.00
H2       0.76731    0.57312    0.59096   1.00
H2       0.61752    0.49705    0.73235   1.00
H2       0.68648    0.54778    0.60145   1.00
H2       0.69555    0.55887    0.72164   1.00
C4       0.13378    0.30549    0.65170   1.00
C4       0.15714    0.35778    0.66676   1.00
C3       0.14335    0.24812    0.65350   1.00
C3       0.18517    0.35283    0.68561   1.00
C3       0.09954    0.30996    0.63404   1.00
C3       0.15259    0.41763    0.66311   1.00
C2       0.08363    0.19801    0.62173   1.00
C2       0.20747    0.46498    0.69682   1.00
C3       0.11879    0.19579    0.63905   1.00
C3       0.20991    0.40486    0.70016   1.00
C3       0.07498    0.25540    0.61974   1.00
C3       0.17870    0.46961    0.67827   1.00
H1       0.16913    0.24254    0.66528   1.00
H1       0.18804    0.31094    0.68955   1.00
C5       0.09092    0.36790    0.63097   1.00
C5       0.12225    0.42426    0.64479   1.00
H1       0.12711    0.15564    0.64127   1.00
H1       0.22977    0.39830    0.71341   1.00
H1       0.04997    0.25651    0.60706   1.00
H1       0.17680    0.51310    0.67617   1.00
C6       0.04832    0.36850    0.61336   1.00
C6       0.12435    0.49079    0.64017   1.00
H2       0.00217    0.31880    0.61229   1.00
H2       0.17499    0.53304    0.64370   1.00
H2       0.02745    0.40172    0.61628   1.00
H2       0.12104    0.49764    0.62397   1.00
C6       0.08828    0.38973    0.59277   1.00
C6       0.06716    0.49810    0.65130   1.00
H2       0.11760    0.36362    0.59110   1.00
H2       0.06352    0.48166    0.66706   1.00
C6       0.04592    0.37766    0.57288   1.00
C6       0.07335    0.57013    0.65132   1.00
H2       0.12626    0.44391    0.59372   1.00
H2       0.01838    0.46183    0.64441   1.00
C6       -0.00189   0.30059    0.56864   1.00
C6       0.13601    0.62259    0.66371   1.00
C6       0.00309    0.41367    0.57371   1.00
C6       0.07795    0.59750    0.62950   1.00
C6       0.09613    0.40785    0.55475   1.00
C6       0.00865    0.56397    0.66149   1.00
H2       0.02668    0.27348    0.56830   1.00
H2       0.13486    0.60426    0.67911   1.00
H2       -0.04128   0.27691    0.58020   1.00
H2       0.18366    0.63259    0.65669   1.00
H2       -0.02763   0.29257    0.55406   1.00
H2       0.13722    0.67127    0.66482   1.00
H2       -0.02239   0.40905    0.55925   1.00
H2       0.07732    0.64538    0.62962   1.00
H2       -0.03626   0.39111    0.58534   1.00
H2       0.12505    0.60720    0.62212   1.00
H2       0.03536    0.46778    0.57710   1.00
H2       0.03514    0.56085    0.62032   1.00
H2       0.12721    0.38359    0.55336   1.00
H2       0.00337    0.54547    0.67705   1.00
H2       0.06887    0.40025    0.54046   1.00
H2       0.01079    0.61320    0.66199   1.00
H2       0.13042    0.46255    0.55666   1.00
H2       -0.03731   0.52860    0.65318   1.00
C4       0.17126    0.86600    0.65177   1.00
C4       0.20015    0.84271    0.66686   1.00
C3       0.10306    0.85330    0.65301   1.00
C3       0.16550    0.81148    0.68525   1.00
C3       0.21133    0.90340    0.63466   1.00
C3       0.26621    0.85062    0.66372   1.00
C2       0.11386    0.91595    0.62176   1.00
C2       0.25708    0.79256    0.69696   1.00
C3       0.07523    0.87775    0.63854   1.00
C3       0.19284    0.78682    0.69981   1.00
C3       0.18120    0.92773    0.62031   1.00
C3       0.29208    0.82448    0.67888   1.00
H1       0.07082    0.82523    0.66436   1.00
H1       0.11939    0.80609    0.68884   1.00
C5       0.27934    0.91531    0.63214   1.00
C5       0.30477    0.88422    0.64590   1.00
H1       0.02581    0.86709    0.64034   1.00
H1       0.16517    0.76456    0.71272   1.00
H1       0.20824    0.95491    0.60802   1.00
H1       0.33866    0.82873    0.67712   1.00
C6       0.32359    0.96107    0.61516   1.00
C6       0.37129    0.88577    0.64174   1.00
H2       0.31788    1.00604    0.61439   1.00
H2       0.36471    0.83556    0.64485   1.00
H2       0.37753    0.98359    0.61862   1.00
H2       0.38347    0.89149    0.62566   1.00
C6       0.30883    0.92379    0.59417   1.00
C6       0.43316    0.94317    0.65374   1.00
H2       0.25375    0.89282    0.59188   1.00
H2       0.41800    0.94415    0.66943   1.00
C6       0.34015    0.96899    0.57482   1.00
C6       0.50077    0.94022    0.65421   1.00
H2       0.32709    0.88741    0.59497   1.00
H2       0.44446    0.99218    0.64730   1.00
C6       0.30847    1.01477    0.57071   1.00
C6       0.49185    0.87710    0.66607   1.00
C6       0.41862    1.01436    0.57653   1.00
C6       0.52689    0.93952    0.63254   1.00
C6       0.32428    0.92137    0.55620   1.00
C6       0.55631    1.00478    0.66526   1.00
H2       0.25295    0.98435    0.56975   1.00
H2       0.47237    0.87550    0.68134   1.00
H2       0.32126    1.05248    0.58265   1.00
H2       0.45648    0.82975    0.65844   1.00
H2       0.32712    1.04252    0.55645   1.00
H2       0.54030    0.87801    0.66752   1.00
H2       0.44047    1.04197    0.56242   1.00
H2       0.57645    0.94240    0.63303   1.00
H2       0.43251    1.05206    0.58855   1.00
H2       0.49180    0.89276    0.62456   1.00
H2       0.44208    0.98349    0.57985   1.00
H2       0.53225    0.98269    0.62372   1.00
H2       0.26934    0.88864    0.55418   1.00
H2       0.54067    1.00737    0.68075   1.00
H2       0.34479    0.95064    0.54226   1.00
H2       0.60450    1.00485    0.66609   1.00
H2       0.34654    0.88864    0.55802   1.00
H2       0.56594    1.05113    0.65736   1.00
