data_IRMOF10_interpen_symm_ligand1cp_symm_b

_audit_creation_method             'generated by an auxiliary program of Tobunporous'

_symmetry_space_group_name_H-M     'P 1'
_symmetry_Int_Tables_number        1
_symmetry_cell_setting             triclinic

_cell_length_a                    22.6523
_cell_length_b                    22.6523
_cell_length_c                    65.9502
_cell_angle_alpha                 90.0000
_cell_angle_beta                  90.0000
_cell_angle_gamma                 120.0000

loop_
_atom_site_label
_atom_site_fract_x
_atom_site_fract_y
_atom_site_fract_z
_atom_site_occupancy
O1       0.00000    0.00000    0.57470   1.00
Zn      0.00000    0.00000    0.54560   1.00
Zn      0.94843    0.04287    0.58357   1.00
Zn      0.09443    0.05157    0.58357   1.00
Zn      0.95713    0.90557    0.58357   1.00
O2       0.93860    0.02610    0.53560   1.00
O2       0.08750    0.06140    0.53560   1.00
O2       0.97390    0.91250    0.53560   1.00
O2       0.91300    0.07160    0.56150   1.00
O2       0.00463    0.12027    0.60077   1.00
O2       0.87413    0.98077    0.60037   1.00
O2       0.15860    0.08700    0.56150   1.00
O2       0.10663    0.12587    0.60037   1.00
O2       0.11563    0.99537    0.60077   1.00
O2       0.92840    0.84140    0.56150   1.00
O2       0.87973    0.88437    0.60077   1.00
O2       0.01923    0.89337    0.60037   1.00
C1       0.91390    0.06020    0.54330   1.00
C1       0.14630    0.08610    0.54330   1.00
C1       0.93980    0.85370    0.54330   1.00
C1       0.06663    0.14397    0.60637   1.00
C1       0.85603    0.92267    0.60637   1.00
C1       0.07733    0.93337    0.60637   1.00
O1       0.00000    0.00000    0.92530   1.00
Zn      0.00000    0.00000    0.95440   1.00
Zn      0.04287    0.94843    0.91643   1.00
Zn      0.05157    0.09443    0.91643   1.00
Zn      0.90557    0.95713    0.91643   1.00
O2       0.02610    0.93860    0.96440   1.00
O2       0.06140    0.08750    0.96440   1.00
O2       0.91250    0.97390    0.96440   1.00
O2       0.07160    0.91300    0.93850   1.00
O2       0.12027    0.00463    0.89923   1.00
O2       0.98077    0.87413    0.89963   1.00
O2       0.08700    0.15860    0.93850   1.00
O2       0.12587    0.10663    0.89963   1.00
O2       0.99537    0.11563    0.89923   1.00
O2       0.84140    0.92840    0.93850   1.00
O2       0.88437    0.87973    0.89923   1.00
O2       0.89337    0.01923    0.89963   1.00
C1       0.06020    0.91390    0.95670   1.00
C1       0.08610    0.14630    0.95670   1.00
C1       0.85370    0.93980    0.95670   1.00
C1       0.14397    0.06663    0.89363   1.00
C1       0.92267    0.85603    0.89363   1.00
C1       0.93337    0.07733    0.89363   1.00
O1       0.00000    0.00000    0.42530   1.00
Zn      0.00000    0.00000    0.45440   1.00
Zn      0.05157    0.95713    0.41643   1.00
Zn      0.90557    0.94843    0.41643   1.00
Zn      0.04287    0.09443    0.41643   1.00
O2       0.06140    0.97390    0.46440   1.00
O2       0.91250    0.93860    0.46440   1.00
O2       0.02610    0.08750    0.46440   1.00
O2       0.08700    0.92840    0.43850   1.00
O2       0.99537    0.87973    0.39923   1.00
O2       0.12587    0.01923    0.39963   1.00
O2       0.84140    0.91300    0.43850   1.00
O2       0.89337    0.87413    0.39963   1.00
O2       0.88437    0.00463    0.39923   1.00
O2       0.07160    0.15860    0.43850   1.00
O2       0.12027    0.11563    0.39923   1.00
O2       0.98077    0.10663    0.39963   1.00
C1       0.08610    0.93980    0.45670   1.00
C1       0.85370    0.91390    0.45670   1.00
C1       0.06020    0.14630    0.45670   1.00
C1       0.93337    0.85603    0.39363   1.00
C1       0.14397    0.07733    0.39363   1.00
C1       0.92267    0.06663    0.39363   1.00
O1       0.00000    0.00000    0.07470   1.00
Zn      0.00000    0.00000    0.04560   1.00
Zn      0.95713    0.05157    0.08357   1.00
Zn      0.94843    0.90557    0.08357   1.00
Zn      0.09443    0.04287    0.08357   1.00
O2       0.97390    0.06140    0.03560   1.00
O2       0.93860    0.91250    0.03560   1.00
O2       0.08750    0.02610    0.03560   1.00
O2       0.92840    0.08700    0.06150   1.00
O2       0.87973    0.99537    0.10077   1.00
O2       0.01923    0.12587    0.10037   1.00
O2       0.91300    0.84140    0.06150   1.00
O2       0.87413    0.89337    0.10037   1.00
O2       0.00463    0.88437    0.10077   1.00
O2       0.15860    0.07160    0.06150   1.00
O2       0.11563    0.12027    0.10077   1.00
O2       0.10663    0.98077    0.10037   1.00
C1       0.93980    0.08610    0.04330   1.00
C1       0.91390    0.85370    0.04330   1.00
C1       0.14630    0.06020    0.04330   1.00
C1       0.85603    0.93337    0.10637   1.00
C1       0.07733    0.14397    0.10637   1.00
C1       0.06663    0.92267    0.10637   1.00
O1       0.66667    0.33333    0.90803   1.00
Zn      0.66667    0.33333    0.87893   1.00
Zn      0.61510    0.37620    0.91690   1.00
Zn      0.76110    0.38490    0.91690   1.00
Zn      0.62380    0.23890    0.91690   1.00
O2       0.60527    0.35943    0.86893   1.00
O2       0.75417    0.39473    0.86893   1.00
O2       0.64057    0.24583    0.86893   1.00
O2       0.57967    0.40493    0.89483   1.00
O2       0.67130    0.45360    0.93410   1.00
O2       0.54080    0.31410    0.93370   1.00
O2       0.82527    0.42033    0.89483   1.00
O2       0.77330    0.45920    0.93370   1.00
O2       0.78230    0.32870    0.93410   1.00
O2       0.59507    0.17473    0.89483   1.00
O2       0.54640    0.21770    0.93410   1.00
O2       0.68590    0.22670    0.93370   1.00
C1       0.58057    0.39353    0.87663   1.00
C1       0.81297    0.41943    0.87663   1.00
C1       0.60647    0.18703    0.87663   1.00
C1       0.73330    0.47730    0.93970   1.00
C1       0.52270    0.25600    0.93970   1.00
C1       0.74400    0.26670    0.93970   1.00
O1       0.66667    0.33333    0.25863   1.00
Zn      0.66667    0.33333    0.28773   1.00
Zn      0.70953    0.28177    0.24977   1.00
Zn      0.71823    0.42777    0.24977   1.00
Zn      0.57223    0.29047    0.24977   1.00
O2       0.69277    0.27193    0.29773   1.00
O2       0.72807    0.42083    0.29773   1.00
O2       0.57917    0.30723    0.29773   1.00
O2       0.73827    0.24633    0.27183   1.00
O2       0.78693    0.33797    0.23257   1.00
O2       0.64743    0.20747    0.23297   1.00
O2       0.75367    0.49193    0.27183   1.00
O2       0.79253    0.43997    0.23297   1.00
O2       0.66203    0.44897    0.23257   1.00
O2       0.50807    0.26173    0.27183   1.00
O2       0.55103    0.21307    0.23257   1.00
O2       0.56003    0.35257    0.23297   1.00
C1       0.72687    0.24723    0.29003   1.00
C1       0.75277    0.47963    0.29003   1.00
C1       0.52037    0.27313    0.29003   1.00
C1       0.81063    0.39997    0.22697   1.00
C1       0.58933    0.18937    0.22697   1.00
C1       0.60003    0.41067    0.22697   1.00
O1       0.66667    0.33333    0.75863   1.00
Zn      0.66667    0.33333    0.78773   1.00
Zn      0.71823    0.29047    0.74977   1.00
Zn      0.57223    0.28177    0.74977   1.00
Zn      0.70953    0.42777    0.74977   1.00
O2       0.72807    0.30723    0.79773   1.00
O2       0.57917    0.27193    0.79773   1.00
O2       0.69277    0.42083    0.79773   1.00
O2       0.75367    0.26173    0.77183   1.00
O2       0.66203    0.21307    0.73257   1.00
O2       0.79253    0.35257    0.73297   1.00
O2       0.50807    0.24633    0.77183   1.00
O2       0.56003    0.20747    0.73297   1.00
O2       0.55103    0.33797    0.73257   1.00
O2       0.73827    0.49193    0.77183   1.00
O2       0.78693    0.44897    0.73257   1.00
O2       0.64743    0.43997    0.73297   1.00
C1       0.75277    0.27313    0.79003   1.00
C1       0.52037    0.24723    0.79003   1.00
C1       0.72687    0.47963    0.79003   1.00
C1       0.60003    0.18937    0.72697   1.00
C1       0.81063    0.41067    0.72697   1.00
C1       0.58933    0.39997    0.72697   1.00
O1       0.66667    0.33333    0.40803   1.00
Zn      0.66667    0.33333    0.37893   1.00
Zn      0.62380    0.38490    0.41690   1.00
Zn      0.61510    0.23890    0.41690   1.00
Zn      0.76110    0.37620    0.41690   1.00
O2       0.64057    0.39473    0.36893   1.00
O2       0.60527    0.24583    0.36893   1.00
O2       0.75417    0.35943    0.36893   1.00
O2       0.59507    0.42033    0.39483   1.00
O2       0.54640    0.32870    0.43410   1.00
O2       0.68590    0.45920    0.43370   1.00
O2       0.57967    0.17473    0.39483   1.00
O2       0.54080    0.22670    0.43370   1.00
O2       0.67130    0.21770    0.43410   1.00
O2       0.82527    0.40493    0.39483   1.00
O2       0.78230    0.45360    0.43410   1.00
O2       0.77330    0.31410    0.43370   1.00
C1       0.60647    0.41943    0.37663   1.00
C1       0.58057    0.18703    0.37663   1.00
C1       0.81297    0.39353    0.37663   1.00
C1       0.52270    0.26670    0.43970   1.00
C1       0.74400    0.47730    0.43970   1.00
C1       0.73330    0.25600    0.43970   1.00
O1       0.33333    0.66667    0.24137   1.00
Zn      0.33333    0.66667    0.21227   1.00
Zn      0.28177    0.70953    0.25023   1.00
Zn      0.42777    0.71823    0.25023   1.00
Zn      0.29047    0.57223    0.25023   1.00
O2       0.27193    0.69277    0.20227   1.00
O2       0.42083    0.72807    0.20227   1.00
O2       0.30723    0.57917    0.20227   1.00
O2       0.24633    0.73827    0.22817   1.00
O2       0.33797    0.78693    0.26743   1.00
O2       0.20747    0.64743    0.26703   1.00
O2       0.49193    0.75367    0.22817   1.00
O2       0.43997    0.79253    0.26703   1.00
O2       0.44897    0.66203    0.26743   1.00
O2       0.26173    0.50807    0.22817   1.00
O2       0.21307    0.55103    0.26743   1.00
O2       0.35257    0.56003    0.26703   1.00
C1       0.24723    0.72687    0.20997   1.00
C1       0.47963    0.75277    0.20997   1.00
C1       0.27313    0.52037    0.20997   1.00
C1       0.39997    0.81063    0.27303   1.00
C1       0.18937    0.58933    0.27303   1.00
C1       0.41067    0.60003    0.27303   1.00
O1       0.33333    0.66667    0.59197   1.00
Zn      0.33333    0.66667    0.62107   1.00
Zn      0.37620    0.61510    0.58310   1.00
Zn      0.38490    0.76110    0.58310   1.00
Zn      0.23890    0.62380    0.58310   1.00
O2       0.35943    0.60527    0.63107   1.00
O2       0.39473    0.75417    0.63107   1.00
O2       0.24583    0.64057    0.63107   1.00
O2       0.40493    0.57967    0.60517   1.00
O2       0.45360    0.67130    0.56590   1.00
O2       0.31410    0.54080    0.56630   1.00
O2       0.42033    0.82527    0.60517   1.00
O2       0.45920    0.77330    0.56630   1.00
O2       0.32870    0.78230    0.56590   1.00
O2       0.17473    0.59507    0.60517   1.00
O2       0.21770    0.54640    0.56590   1.00
O2       0.22670    0.68590    0.56630   1.00
C1       0.39353    0.58057    0.62337   1.00
C1       0.41943    0.81297    0.62337   1.00
C1       0.18703    0.60647    0.62337   1.00
C1       0.47730    0.73330    0.56030   1.00
C1       0.25600    0.52270    0.56030   1.00
C1       0.26670    0.74400    0.56030   1.00
O1       0.33333    0.66667    0.09197   1.00
Zn      0.33333    0.66667    0.12107   1.00
Zn      0.38490    0.62380    0.08310   1.00
Zn      0.23890    0.61510    0.08310   1.00
Zn      0.37620    0.76110    0.08310   1.00
O2       0.39473    0.64057    0.13107   1.00
O2       0.24583    0.60527    0.13107   1.00
O2       0.35943    0.75417    0.13107   1.00
O2       0.42033    0.59507    0.10517   1.00
O2       0.32870    0.54640    0.06590   1.00
O2       0.45920    0.68590    0.06630   1.00
O2       0.17473    0.57967    0.10517   1.00
O2       0.22670    0.54080    0.06630   1.00
O2       0.21770    0.67130    0.06590   1.00
O2       0.40493    0.82527    0.10517   1.00
O2       0.45360    0.78230    0.06590   1.00
O2       0.31410    0.77330    0.06630   1.00
C1       0.41943    0.60647    0.12337   1.00
C1       0.18703    0.58057    0.12337   1.00
C1       0.39353    0.81297    0.12337   1.00
C1       0.26670    0.52270    0.06030   1.00
C1       0.47730    0.74400    0.06030   1.00
C1       0.25600    0.73330    0.06030   1.00
O1       0.33333    0.66667    0.74137   1.00
Zn      0.33333    0.66667    0.71227   1.00
Zn      0.29047    0.71823    0.75023   1.00
Zn      0.28177    0.57223    0.75023   1.00
Zn      0.42777    0.70953    0.75023   1.00
O2       0.30723    0.72807    0.70227   1.00
O2       0.27193    0.57917    0.70227   1.00
O2       0.42083    0.69277    0.70227   1.00
O2       0.26173    0.75367    0.72817   1.00
O2       0.21307    0.66203    0.76743   1.00
O2       0.35257    0.79253    0.76703   1.00
O2       0.24633    0.50807    0.72817   1.00
O2       0.20747    0.56003    0.76703   1.00
O2       0.33797    0.55103    0.76743   1.00
O2       0.49193    0.73827    0.72817   1.00
O2       0.44897    0.78693    0.76743   1.00
O2       0.43997    0.64743    0.76703   1.00
C1       0.27313    0.75277    0.70997   1.00
C1       0.24723    0.52037    0.70997   1.00
C1       0.47963    0.72687    0.70997   1.00
C1       0.18937    0.60003    0.77303   1.00
C1       0.41067    0.81063    0.77303   1.00
C1       0.39997    0.58933    0.77303   1.00
C2       0.77570    0.51586    0.46161   1.00
C3       0.75614    0.51037    0.48084   1.00
H1       0.72367    0.46784    0.48572   1.00
C3       0.82458    0.57813    0.45495   1.00
H1       0.83974    0.58290    0.44162   1.00
C4       0.78226    0.56519    0.49386   1.00
C5       0.76020    0.55892    0.51592   1.00
H2       0.78720    0.54622    0.52407   1.00
H2       0.71298    0.52466    0.51706   1.00
H2       0.76633    0.60178    0.52053   1.00
C4       0.85238    0.63454    0.46748   1.00
C5       0.90933    0.70509    0.45982   1.00
H2       0.88948    0.73139    0.45521   1.00
H2       0.93371    0.69886    0.44891   1.00
H2       0.94032    0.72880    0.47073   1.00
C6       0.83216    0.62827    0.48730   1.00
C6       0.86258    0.68833    0.50096   1.00
C4       0.91822    0.70207    0.51299   1.00
C5       0.95290    0.66176    0.51045   1.00
H2       0.93325    0.62366    0.51957   1.00
H2       0.00031    0.68983    0.51335   1.00
H2       0.94716    0.64554    0.49668   1.00
C4       0.83246    0.72881    0.50152   1.00
C5       0.77048    0.71549    0.48886   1.00
H2       0.78541    0.73753    0.47588   1.00
H2       0.74542    0.73326    0.49577   1.00
H2       0.74185    0.66738    0.48686   1.00
C3       0.94326    0.75669    0.52627   1.00
H1       0.98129    0.76674    0.53414   1.00
C3       0.86051    0.78361    0.51610   1.00
H1       0.84102    0.81113    0.51718   1.00
C2       0.91370    0.79640    0.52810   1.00
C2       0.48414    0.25984    0.46161   1.00
C3       0.48963    0.24577    0.48084   1.00
H1       0.53216    0.25583    0.48572   1.00
C3       0.42187    0.24645    0.45495   1.00
H1       0.41710    0.25684    0.44162   1.00
C4       0.43481    0.21707    0.49386   1.00
C5       0.44108    0.20128    0.51592   1.00
H2       0.45378    0.24098    0.52407   1.00
H2       0.47534    0.18832    0.51706   1.00
H2       0.39822    0.16455    0.52053   1.00
C4       0.36546    0.21784    0.46748   1.00
C5       0.29491    0.20424    0.45982   1.00
H2       0.26861    0.15809    0.45521   1.00
H2       0.30114    0.23485    0.44891   1.00
H2       0.27120    0.21152    0.47073   1.00
C6       0.37173    0.20389    0.48730   1.00
C6       0.31167    0.17425    0.50096   1.00
C4       0.29793    0.21615    0.51299   1.00
C5       0.33824    0.29114    0.51045   1.00
H2       0.37634    0.30959    0.51957   1.00
H2       0.31017    0.31048    0.51335   1.00
H2       0.35446    0.30162    0.49668   1.00
C4       0.27119    0.10365    0.50152   1.00
C5       0.28451    0.05499    0.48886   1.00
H2       0.26247    0.04788    0.47588   1.00
H2       0.26674    0.01216    0.49577   1.00
H2       0.33262    0.07447    0.48686   1.00
C3       0.24331    0.18657    0.52627   1.00
H1       0.23326    0.21455    0.53414   1.00
C3       0.21639    0.07690    0.51610   1.00
H1       0.18887    0.02989    0.51718   1.00
C2       0.20360    0.11730    0.52810   1.00
C2       0.74016    0.22430    0.46161   1.00
C3       0.75423    0.24386    0.48084   1.00
H1       0.74417    0.27633    0.48572   1.00
C3       0.75355    0.17542    0.45495   1.00
H1       0.74316    0.16026    0.44162   1.00
C4       0.78293    0.21774    0.49386   1.00
C5       0.79872    0.23980    0.51592   1.00
H2       0.75902    0.21280    0.52407   1.00
H2       0.81168    0.28702    0.51706   1.00
H2       0.83545    0.23367    0.52053   1.00
C4       0.78216    0.14762    0.46748   1.00
C5       0.79576    0.09067    0.45982   1.00
H2       0.84191    0.11052    0.45521   1.00
H2       0.76515    0.06629    0.44891   1.00
H2       0.78848    0.05968    0.47073   1.00
C6       0.79611    0.16784    0.48730   1.00
C6       0.82575    0.13742    0.50096   1.00
C4       0.78385    0.08178    0.51299   1.00
C5       0.70886    0.04710    0.51045   1.00
H2       0.69041    0.06675    0.51957   1.00
H2       0.68952    -0.00031   0.51335   1.00
H2       0.69838    0.05284    0.49668   1.00
C4       0.89635    0.16754    0.50152   1.00
C5       0.94501    0.22952    0.48886   1.00
H2       0.95212    0.21459    0.47588   1.00
H2       0.98784    0.25458    0.49577   1.00
H2       0.92553    0.25815    0.48686   1.00
C3       0.81343    0.05674    0.52627   1.00
H1       0.78545    0.01871    0.53414   1.00
C3       0.92310    0.13949    0.51610   1.00
H1       0.97011    0.15898    0.51718   1.00
C2       0.88270    0.08630    0.52810   1.00
C2       0.51586    0.77570    0.03839   1.00
C3       0.51037    0.75614    0.01916   1.00
H1       0.46784    0.72367    0.01428   1.00
C3       0.57813    0.82458    0.04505   1.00
H1       0.58290    0.83974    0.05838   1.00
C4       0.56519    0.78226    0.00614   1.00
C5       0.55892    0.76020    0.98408   1.00
H2       0.54622    0.78720    0.97593   1.00
H2       0.52466    0.71298    0.98294   1.00
H2       0.60178    0.76633    0.97947   1.00
C4       0.63454    0.85238    0.03252   1.00
C5       0.70509    0.90933    0.04018   1.00
H2       0.73139    0.88948    0.04479   1.00
H2       0.69886    0.93371    0.05109   1.00
H2       0.72880    0.94032    0.02927   1.00
C6       0.62827    0.83216    0.01270   1.00
C6       0.68833    0.86258    0.99904   1.00
C4       0.70207    0.91822    0.98701   1.00
C5       0.66176    0.95290    0.98955   1.00
H2       0.62366    0.93325    0.98043   1.00
H2       0.68983    0.00031    0.98665   1.00
H2       0.64554    0.94716    0.00332   1.00
C4       0.72881    0.83246    0.99848   1.00
C5       0.71549    0.77048    0.01114   1.00
H2       0.73753    0.78541    0.02412   1.00
H2       0.73326    0.74542    0.00423   1.00
H2       0.66738    0.74185    0.01314   1.00
C3       0.75669    0.94326    0.97373   1.00
H1       0.76674    0.98129    0.96586   1.00
C3       0.78361    0.86051    0.98390   1.00
H1       0.81113    0.84102    0.98282   1.00
C2       0.79640    0.91370    0.97190   1.00
C2       0.25984    0.48414    0.03839   1.00
C3       0.24577    0.48963    0.01916   1.00
H1       0.25583    0.53216    0.01428   1.00
C3       0.24645    0.42187    0.04505   1.00
H1       0.25684    0.41710    0.05838   1.00
C4       0.21707    0.43481    0.00614   1.00
C5       0.20128    0.44108    0.98408   1.00
H2       0.24098    0.45378    0.97593   1.00
H2       0.18832    0.47534    0.98294   1.00
H2       0.16455    0.39822    0.97947   1.00
C4       0.21784    0.36546    0.03252   1.00
C5       0.20424    0.29491    0.04018   1.00
H2       0.15809    0.26861    0.04479   1.00
H2       0.23485    0.30114    0.05109   1.00
H2       0.21152    0.27120    0.02927   1.00
C6       0.20389    0.37173    0.01270   1.00
C6       0.17425    0.31167    0.99904   1.00
C4       0.21615    0.29793    0.98701   1.00
C5       0.29114    0.33824    0.98955   1.00
H2       0.30959    0.37634    0.98043   1.00
H2       0.31048    0.31017    0.98665   1.00
H2       0.30162    0.35446    0.00332   1.00
C4       0.10365    0.27119    0.99848   1.00
C5       0.05499    0.28451    0.01114   1.00
H2       0.04788    0.26247    0.02412   1.00
H2       0.01216    0.26674    0.00423   1.00
H2       0.07447    0.33262    0.01314   1.00
C3       0.18657    0.24331    0.97373   1.00
H1       0.21455    0.23326    0.96586   1.00
C3       0.07690    0.21639    0.98390   1.00
H1       0.02989    0.18887    0.98282   1.00
C2       0.11730    0.20360    0.97190   1.00
C2       0.22430    0.74016    0.03839   1.00
C3       0.24386    0.75423    0.01916   1.00
H1       0.27633    0.74417    0.01428   1.00
C3       0.17542    0.75355    0.04505   1.00
H1       0.16026    0.74316    0.05838   1.00
C4       0.21774    0.78293    0.00614   1.00
C5       0.23980    0.79872    0.98408   1.00
H2       0.21280    0.75902    0.97593   1.00
H2       0.28702    0.81168    0.98294   1.00
H2       0.23367    0.83545    0.97947   1.00
C4       0.14762    0.78216    0.03252   1.00
C5       0.09067    0.79576    0.04018   1.00
H2       0.11052    0.84191    0.04479   1.00
H2       0.06629    0.76515    0.05109   1.00
H2       0.05968    0.78848    0.02927   1.00
C6       0.16784    0.79611    0.01270   1.00
C6       0.13742    0.82575    0.99904   1.00
C4       0.08178    0.78385    0.98701   1.00
C5       0.04710    0.70886    0.98955   1.00
H2       0.06675    0.69041    0.98043   1.00
H2       -0.00031   0.68952    0.98665   1.00
H2       0.05284    0.69838    0.00332   1.00
C4       0.16754    0.89635    0.99848   1.00
C5       0.22952    0.94501    0.01114   1.00
H2       0.21459    0.95212    0.02412   1.00
H2       0.25458    0.98784    0.00423   1.00
H2       0.25815    0.92553    0.01314   1.00
C3       0.05674    0.81343    0.97373   1.00
H1       0.01871    0.78545    0.96586   1.00
C3       0.13949    0.92310    0.98390   1.00
H1       0.15898    0.97011    0.98282   1.00
C2       0.08630    0.88270    0.97190   1.00
C2       0.22430    0.48414    0.53839   1.00
C3       0.24386    0.48963    0.51916   1.00
H1       0.27633    0.53216    0.51428   1.00
C3       0.17542    0.42187    0.54505   1.00
H1       0.16026    0.41710    0.55838   1.00
C4       0.21774    0.43481    0.50614   1.00
C5       0.23980    0.44108    0.48408   1.00
H2       0.21280    0.45378    0.47593   1.00
H2       0.28702    0.47534    0.48294   1.00
H2       0.23367    0.39822    0.47947   1.00
C4       0.14762    0.36546    0.53252   1.00
C5       0.09067    0.29491    0.54018   1.00
H2       0.11052    0.26861    0.54479   1.00
H2       0.06629    0.30114    0.55109   1.00
H2       0.05968    0.27120    0.52927   1.00
C6       0.16784    0.37173    0.51270   1.00
C6       0.13742    0.31167    0.49904   1.00
C4       0.08178    0.29793    0.48701   1.00
C5       0.04710    0.33824    0.48955   1.00
H2       0.06675    0.37634    0.48043   1.00
H2       -0.00031   0.31017    0.48665   1.00
H2       0.05284    0.35446    0.50332   1.00
C4       0.16754    0.27119    0.49848   1.00
C5       0.22952    0.28451    0.51114   1.00
H2       0.21459    0.26247    0.52412   1.00
H2       0.25458    0.26674    0.50423   1.00
H2       0.25815    0.33262    0.51314   1.00
C3       0.05674    0.24331    0.47373   1.00
H1       0.01871    0.23326    0.46586   1.00
C3       0.13949    0.21639    0.48390   1.00
H1       0.15898    0.18887    0.48282   1.00
C2       0.08630    0.20360    0.47190   1.00
C2       0.51586    0.74016    0.53839   1.00
C3       0.51037    0.75423    0.51916   1.00
H1       0.46784    0.74417    0.51428   1.00
C3       0.57813    0.75355    0.54505   1.00
H1       0.58290    0.74316    0.55838   1.00
C4       0.56519    0.78293    0.50614   1.00
C5       0.55892    0.79872    0.48408   1.00
H2       0.54622    0.75902    0.47593   1.00
H2       0.52466    0.81168    0.48294   1.00
H2       0.60178    0.83545    0.47947   1.00
C4       0.63454    0.78216    0.53252   1.00
C5       0.70509    0.79576    0.54018   1.00
H2       0.73139    0.84191    0.54479   1.00
H2       0.69886    0.76515    0.55109   1.00
H2       0.72880    0.78848    0.52927   1.00
C6       0.62827    0.79611    0.51270   1.00
C6       0.68833    0.82575    0.49904   1.00
C4       0.70207    0.78385    0.48701   1.00
C5       0.66176    0.70886    0.48955   1.00
H2       0.62366    0.69041    0.48043   1.00
H2       0.68983    0.68952    0.48665   1.00
H2       0.64554    0.69838    0.50332   1.00
C4       0.72881    0.89635    0.49848   1.00
C5       0.71549    0.94501    0.51114   1.00
H2       0.73753    0.95212    0.52412   1.00
H2       0.73326    0.98784    0.50423   1.00
H2       0.66738    0.92553    0.51314   1.00
C3       0.75669    0.81343    0.47373   1.00
H1       0.76674    0.78545    0.46586   1.00
C3       0.78361    0.92310    0.48390   1.00
H1       0.81113    0.97011    0.48282   1.00
C2       0.79640    0.88270    0.47190   1.00
C2       0.25984    0.77570    0.53839   1.00
C3       0.24577    0.75614    0.51916   1.00
H1       0.25583    0.72367    0.51428   1.00
C3       0.24645    0.82458    0.54505   1.00
H1       0.25684    0.83974    0.55838   1.00
C4       0.21707    0.78226    0.50614   1.00
C5       0.20128    0.76020    0.48408   1.00
H2       0.24098    0.78720    0.47593   1.00
H2       0.18832    0.71298    0.48294   1.00
H2       0.16455    0.76633    0.47947   1.00
C4       0.21784    0.85238    0.53252   1.00
C5       0.20424    0.90933    0.54018   1.00
H2       0.15809    0.88948    0.54479   1.00
H2       0.23485    0.93371    0.55109   1.00
H2       0.21152    0.94032    0.52927   1.00
C6       0.20389    0.83216    0.51270   1.00
C6       0.17425    0.86258    0.49904   1.00
C4       0.21615    0.91822    0.48701   1.00
C5       0.29114    0.95290    0.48955   1.00
H2       0.30959    0.93325    0.48043   1.00
H2       0.31048    0.00031    0.48665   1.00
H2       0.30162    0.94716    0.50332   1.00
C4       0.10365    0.83246    0.49848   1.00
C5       0.05499    0.77048    0.51114   1.00
H2       0.04788    0.78541    0.52412   1.00
H2       0.01216    0.74542    0.50423   1.00
H2       0.07447    0.74185    0.51314   1.00
C3       0.18657    0.94326    0.47373   1.00
H1       0.21455    0.98129    0.46586   1.00
C3       0.07690    0.86051    0.48390   1.00
H1       0.02989    0.84102    0.48282   1.00
C2       0.11730    0.91370    0.47190   1.00
C2       0.48414    0.22430    0.96161   1.00
C3       0.48963    0.24386    0.98084   1.00
H1       0.53216    0.27633    0.98572   1.00
C3       0.42187    0.17542    0.95495   1.00
H1       0.41710    0.16026    0.94162   1.00
C4       0.43481    0.21774    0.99386   1.00
C5       0.44108    0.23980    0.01592   1.00
H2       0.45378    0.21280    0.02407   1.00
H2       0.47534    0.28702    0.01706   1.00
H2       0.39822    0.23367    0.02053   1.00
C4       0.36546    0.14762    0.96748   1.00
C5       0.29491    0.09067    0.95982   1.00
H2       0.26861    0.11052    0.95521   1.00
H2       0.30114    0.06629    0.94891   1.00
H2       0.27120    0.05968    0.97073   1.00
C6       0.37173    0.16784    0.98730   1.00
C6       0.31167    0.13742    0.00096   1.00
C4       0.29793    0.08178    0.01299   1.00
C5       0.33824    0.04710    0.01045   1.00
H2       0.37634    0.06675    0.01957   1.00
H2       0.31017    -0.00031   0.01335   1.00
H2       0.35446    0.05284    0.99668   1.00
C4       0.27119    0.16754    0.00152   1.00
C5       0.28451    0.22952    0.98886   1.00
H2       0.26247    0.21459    0.97588   1.00
H2       0.26674    0.25458    0.99577   1.00
H2       0.33262    0.25815    0.98686   1.00
C3       0.24331    0.05674    0.02627   1.00
H1       0.23326    0.01871    0.03414   1.00
C3       0.21639    0.13949    0.01610   1.00
H1       0.18887    0.15898    0.01718   1.00
C2       0.20360    0.08630    0.02810   1.00
C2       0.74016    0.51586    0.96161   1.00
C3       0.75423    0.51037    0.98084   1.00
H1       0.74417    0.46784    0.98572   1.00
C3       0.75355    0.57813    0.95495   1.00
H1       0.74316    0.58290    0.94162   1.00
C4       0.78293    0.56519    0.99386   1.00
C5       0.79872    0.55892    0.01592   1.00
H2       0.75902    0.54622    0.02407   1.00
H2       0.81168    0.52466    0.01706   1.00
H2       0.83545    0.60178    0.02053   1.00
C4       0.78216    0.63454    0.96748   1.00
C5       0.79576    0.70509    0.95982   1.00
H2       0.84191    0.73139    0.95521   1.00
H2       0.76515    0.69886    0.94891   1.00
H2       0.78848    0.72880    0.97073   1.00
C6       0.79611    0.62827    0.98730   1.00
C6       0.82575    0.68833    0.00096   1.00
C4       0.78385    0.70207    0.01299   1.00
C5       0.70886    0.66176    0.01045   1.00
H2       0.69041    0.62366    0.01957   1.00
H2       0.68952    0.68983    0.01335   1.00
H2       0.69838    0.64554    0.99668   1.00
C4       0.89635    0.72881    0.00152   1.00
C5       0.94501    0.71549    0.98886   1.00
H2       0.95212    0.73753    0.97588   1.00
H2       0.98784    0.73326    0.99577   1.00
H2       0.92553    0.66738    0.98686   1.00
C3       0.81343    0.75669    0.02627   1.00
H1       0.78545    0.76674    0.03414   1.00
C3       0.92310    0.78361    0.01610   1.00
H1       0.97011    0.81113    0.01718   1.00
C2       0.88270    0.79640    0.02810   1.00
C2       0.77570    0.25984    0.96161   1.00
C3       0.75614    0.24577    0.98084   1.00
H1       0.72367    0.25583    0.98572   1.00
C3       0.82458    0.24645    0.95495   1.00
H1       0.83974    0.25684    0.94162   1.00
C4       0.78226    0.21707    0.99386   1.00
C5       0.76020    0.20128    0.01592   1.00
H2       0.78720    0.24098    0.02407   1.00
H2       0.71298    0.18832    0.01706   1.00
H2       0.76633    0.16455    0.02053   1.00
C4       0.85238    0.21784    0.96748   1.00
C5       0.90933    0.20424    0.95982   1.00
H2       0.88948    0.15809    0.95521   1.00
H2       0.93371    0.23485    0.94891   1.00
H2       0.94032    0.21152    0.97073   1.00
C6       0.83216    0.20389    0.98730   1.00
C6       0.86258    0.17425    0.00096   1.00
C4       0.91822    0.21615    0.01299   1.00
C5       0.95290    0.29114    0.01045   1.00
H2       0.93325    0.30959    0.01957   1.00
H2       0.00031    0.31048    0.01335   1.00
H2       0.94716    0.30162    0.99668   1.00
C4       0.83246    0.10365    0.00152   1.00
C5       0.77048    0.05499    0.98886   1.00
H2       0.78541    0.04788    0.97588   1.00
H2       0.74542    0.01216    0.99577   1.00
H2       0.74185    0.07447    0.98686   1.00
C3       0.94326    0.18657    0.02627   1.00
H1       0.98129    0.21455    0.03414   1.00
C3       0.86051    0.07690    0.01610   1.00
H1       0.84102    0.02989    0.01718   1.00
C2       0.91370    0.11730    0.02810   1.00
C2       0.44237    0.84919    0.79494   1.00
C3       0.42281    0.84370    0.81417   1.00
H1       0.39034    0.80117    0.81905   1.00
C3       0.49125    0.91146    0.78828   1.00
H1       0.50641    0.91623    0.77495   1.00
C4       0.44893    0.89852    0.82719   1.00
C5       0.42687    0.89225    0.84925   1.00
H2       0.45387    0.87955    0.85740   1.00
H2       0.37965    0.85799    0.85039   1.00
H2       0.43300    0.93511    0.85386   1.00
C4       0.51905    0.96787    0.80081   1.00
C5       0.57600    0.03842    0.79315   1.00
H2       0.55615    0.06472    0.78854   1.00
H2       0.60038    0.03219    0.78224   1.00
H2       0.60699    0.06213    0.80406   1.00
C6       0.49883    0.96160    0.82063   1.00
C6       0.52925    0.02166    0.83429   1.00
C4       0.58489    0.03540    0.84632   1.00
C5       0.61957    0.99509    0.84378   1.00
H2       0.59992    0.95699    0.85290   1.00
H2       0.66698    0.02316    0.84668   1.00
H2       0.61383    0.97887    0.83001   1.00
C4       0.49913    0.06214    0.83485   1.00
C5       0.43715    0.04882    0.82219   1.00
H2       0.45208    0.07086    0.80921   1.00
H2       0.41209    0.06659    0.82910   1.00
H2       0.40852    0.00071    0.82019   1.00
C3       0.60993    0.09002    0.85960   1.00
H1       0.64796    0.10007    0.86747   1.00
C3       0.52718    0.11694    0.84943   1.00
H1       0.50769    0.14446    0.85051   1.00
C2       0.58037    0.12973    0.86143   1.00
C2       0.15081    0.59317    0.79494   1.00
C3       0.15630    0.57910    0.81417   1.00
H1       0.19883    0.58916    0.81905   1.00
C3       0.08854    0.57978    0.78828   1.00
H1       0.08377    0.59017    0.77495   1.00
C4       0.10148    0.55040    0.82719   1.00
C5       0.10775    0.53461    0.84925   1.00
H2       0.12045    0.57431    0.85740   1.00
H2       0.14201    0.52165    0.85039   1.00
H2       0.06489    0.49788    0.85386   1.00
C4       0.03213    0.55117    0.80081   1.00
C5       0.96158    0.53757    0.79315   1.00
H2       0.93528    0.49142    0.78854   1.00
H2       0.96781    0.56818    0.78224   1.00
H2       0.93787    0.54485    0.80406   1.00
C6       0.03840    0.53722    0.82063   1.00
C6       0.97834    0.50758    0.83429   1.00
C4       0.96460    0.54948    0.84632   1.00
C5       0.00491    0.62447    0.84378   1.00
H2       0.04301    0.64292    0.85290   1.00
H2       0.97684    0.64381    0.84668   1.00
H2       0.02113    0.63495    0.83001   1.00
C4       0.93786    0.43698    0.83485   1.00
C5       0.95118    0.38832    0.82219   1.00
H2       0.92914    0.38121    0.80921   1.00
H2       0.93341    0.34549    0.82910   1.00
H2       0.99929    0.40780    0.82019   1.00
C3       0.90998    0.51990    0.85960   1.00
H1       0.89993    0.54788    0.86747   1.00
C3       0.88306    0.41023    0.84943   1.00
H1       0.85554    0.36322    0.85051   1.00
C2       0.87027    0.45063    0.86143   1.00
C2       0.40683    0.55763    0.79494   1.00
C3       0.42090    0.57719    0.81417   1.00
H1       0.41084    0.60966    0.81905   1.00
C3       0.42022    0.50875    0.78828   1.00
H1       0.40983    0.49359    0.77495   1.00
C4       0.44960    0.55107    0.82719   1.00
C5       0.46539    0.57313    0.84925   1.00
H2       0.42569    0.54613    0.85740   1.00
H2       0.47835    0.62035    0.85039   1.00
H2       0.50212    0.56700    0.85386   1.00
C4       0.44883    0.48095    0.80081   1.00
C5       0.46243    0.42400    0.79315   1.00
H2       0.50858    0.44385    0.78854   1.00
H2       0.43182    0.39962    0.78224   1.00
H2       0.45515    0.39301    0.80406   1.00
C6       0.46278    0.50117    0.82063   1.00
C6       0.49242    0.47075    0.83429   1.00
C4       0.45052    0.41511    0.84632   1.00
C5       0.37553    0.38043    0.84378   1.00
H2       0.35708    0.40008    0.85290   1.00
H2       0.35619    0.33302    0.84668   1.00
H2       0.36505    0.38617    0.83001   1.00
C4       0.56302    0.50087    0.83485   1.00
C5       0.61168    0.56285    0.82219   1.00
H2       0.61879    0.54792    0.80921   1.00
H2       0.65451    0.58791    0.82910   1.00
H2       0.59220    0.59148    0.82019   1.00
C3       0.48010    0.39007    0.85960   1.00
H1       0.45212    0.35204    0.86747   1.00
C3       0.58977    0.47282    0.84943   1.00
H1       0.63678    0.49231    0.85051   1.00
C2       0.54937    0.41963    0.86143   1.00
C2       0.18253    0.10903    0.37172   1.00
C3       0.17704    0.08947    0.35249   1.00
H1       0.13451    0.05700    0.34761   1.00
C3       0.24480    0.15791    0.37838   1.00
H1       0.24957    0.17307    0.39171   1.00
C4       0.23186    0.11559    0.33947   1.00
C5       0.22559    0.09353    0.31741   1.00
H2       0.21289    0.12053    0.30926   1.00
H2       0.19133    0.04631    0.31627   1.00
H2       0.26845    0.09966    0.31280   1.00
C4       0.30121    0.18571    0.36585   1.00
C5       0.37176    0.24266    0.37351   1.00
H2       0.39806    0.22281    0.37812   1.00
H2       0.36553    0.26704    0.38442   1.00
H2       0.39547    0.27365    0.36260   1.00
C6       0.29494    0.16549    0.34603   1.00
C6       0.35500    0.19591    0.33237   1.00
C4       0.36874    0.25155    0.32034   1.00
C5       0.32843    0.28623    0.32288   1.00
H2       0.29033    0.26658    0.31376   1.00
H2       0.35650    0.33364    0.31998   1.00
H2       0.31221    0.28049    0.33665   1.00
C4       0.39548    0.16579    0.33181   1.00
C5       0.38216    0.10381    0.34447   1.00
H2       0.40420    0.11874    0.35745   1.00
H2       0.39993    0.07875    0.33756   1.00
H2       0.33405    0.07518    0.34647   1.00
C3       0.42336    0.27659    0.30706   1.00
H1       0.43341    0.31462    0.29919   1.00
C3       0.45028    0.19384    0.31723   1.00
H1       0.47780    0.17435    0.31615   1.00
C2       0.46307    0.24703    0.30523   1.00
C2       0.92651    0.81747    0.37172   1.00
C3       0.91244    0.82296    0.35249   1.00
H1       0.92250    0.86549    0.34761   1.00
C3       0.91312    0.75520    0.37838   1.00
H1       0.92351    0.75043    0.39171   1.00
C4       0.88374    0.76814    0.33947   1.00
C5       0.86795    0.77441    0.31741   1.00
H2       0.90765    0.78711    0.30926   1.00
H2       0.85499    0.80867    0.31627   1.00
H2       0.83122    0.73155    0.31280   1.00
C4       0.88451    0.69879    0.36585   1.00
C5       0.87091    0.62824    0.37351   1.00
H2       0.82476    0.60194    0.37812   1.00
H2       0.90152    0.63447    0.38442   1.00
H2       0.87819    0.60453    0.36260   1.00
C6       0.87056    0.70506    0.34603   1.00
C6       0.84092    0.64500    0.33237   1.00
C4       0.88282    0.63126    0.32034   1.00
C5       0.95781    0.67157    0.32288   1.00
H2       0.97626    0.70967    0.31376   1.00
H2       0.97715    0.64350    0.31998   1.00
H2       0.96829    0.68779    0.33665   1.00
C4       0.77032    0.60452    0.33181   1.00
C5       0.72166    0.61784    0.34447   1.00
H2       0.71455    0.59580    0.35745   1.00
H2       0.67883    0.60007    0.33756   1.00
H2       0.74114    0.66595    0.34647   1.00
C3       0.85324    0.57664    0.30706   1.00
H1       0.88122    0.56659    0.29919   1.00
C3       0.74357    0.54972    0.31723   1.00
H1       0.69656    0.52220    0.31615   1.00
C2       0.78397    0.53693    0.30523   1.00
C2       0.89097    0.07349    0.37172   1.00
C3       0.91053    0.08756    0.35249   1.00
H1       0.94300    0.07750    0.34761   1.00
C3       0.84209    0.08688    0.37838   1.00
H1       0.82693    0.07649    0.39171   1.00
C4       0.88441    0.11626    0.33947   1.00
C5       0.90647    0.13205    0.31741   1.00
H2       0.87947    0.09235    0.30926   1.00
H2       0.95369    0.14501    0.31627   1.00
H2       0.90034    0.16878    0.31280   1.00
C4       0.81429    0.11549    0.36585   1.00
C5       0.75734    0.12909    0.37351   1.00
H2       0.77719    0.17524    0.37812   1.00
H2       0.73296    0.09848    0.38442   1.00
H2       0.72635    0.12181    0.36260   1.00
C6       0.83451    0.12944    0.34603   1.00
C6       0.80409    0.15908    0.33237   1.00
C4       0.74845    0.11718    0.32034   1.00
C5       0.71377    0.04219    0.32288   1.00
H2       0.73342    0.02374    0.31376   1.00
H2       0.66636    0.02285    0.31998   1.00
H2       0.71951    0.03171    0.33665   1.00
C4       0.83421    0.22968    0.33181   1.00
C5       0.89619    0.27834    0.34447   1.00
H2       0.88126    0.28545    0.35745   1.00
H2       0.92125    0.32117    0.33756   1.00
H2       0.92482    0.25886    0.34647   1.00
C3       0.72341    0.14676    0.30706   1.00
H1       0.68538    0.11878    0.29919   1.00
C3       0.80616    0.25643    0.31723   1.00
H1       0.82565    0.30344    0.31615   1.00
C2       0.75297    0.21603    0.30523   1.00
C2       0.89097    0.81747    0.87172   1.00
C3       0.91053    0.82296    0.85249   1.00
H1       0.94300    0.86549    0.84761   1.00
C3       0.84209    0.75520    0.87838   1.00
H1       0.82693    0.75043    0.89171   1.00
C4       0.88441    0.76814    0.83947   1.00
C5       0.90647    0.77441    0.81741   1.00
H2       0.87947    0.78711    0.80926   1.00
H2       0.95369    0.80867    0.81627   1.00
H2       0.90034    0.73155    0.81280   1.00
C4       0.81429    0.69879    0.86585   1.00
C5       0.75734    0.62824    0.87351   1.00
H2       0.77719    0.60194    0.87812   1.00
H2       0.73296    0.63447    0.88442   1.00
H2       0.72635    0.60453    0.86260   1.00
C6       0.83451    0.70506    0.84603   1.00
C6       0.80409    0.64500    0.83237   1.00
C4       0.74845    0.63126    0.82034   1.00
C5       0.71377    0.67157    0.82288   1.00
H2       0.73342    0.70967    0.81376   1.00
H2       0.66636    0.64350    0.81998   1.00
H2       0.71951    0.68779    0.83665   1.00
C4       0.83421    0.60452    0.83181   1.00
C5       0.89619    0.61784    0.84447   1.00
H2       0.88126    0.59580    0.85745   1.00
H2       0.92125    0.60007    0.83756   1.00
H2       0.92482    0.66595    0.84647   1.00
C3       0.72341    0.57664    0.80706   1.00
H1       0.68538    0.56659    0.79919   1.00
C3       0.80616    0.54972    0.81723   1.00
H1       0.82565    0.52220    0.81615   1.00
C2       0.75297    0.53693    0.80523   1.00
C2       0.18253    0.07349    0.87172   1.00
C3       0.17704    0.08756    0.85249   1.00
H1       0.13451    0.07750    0.84761   1.00
C3       0.24480    0.08688    0.87838   1.00
H1       0.24957    0.07649    0.89171   1.00
C4       0.23186    0.11626    0.83947   1.00
C5       0.22559    0.13205    0.81741   1.00
H2       0.21289    0.09235    0.80926   1.00
H2       0.19133    0.14501    0.81627   1.00
H2       0.26845    0.16878    0.81280   1.00
C4       0.30121    0.11549    0.86585   1.00
C5       0.37176    0.12909    0.87351   1.00
H2       0.39806    0.17524    0.87812   1.00
H2       0.36553    0.09848    0.88442   1.00
H2       0.39547    0.12181    0.86260   1.00
C6       0.29494    0.12944    0.84603   1.00
C6       0.35500    0.15908    0.83237   1.00
C4       0.36874    0.11718    0.82034   1.00
C5       0.32843    0.04219    0.82288   1.00
H2       0.29033    0.02374    0.81376   1.00
H2       0.35650    0.02285    0.81998   1.00
H2       0.31221    0.03171    0.83665   1.00
C4       0.39548    0.22968    0.83181   1.00
C5       0.38216    0.27834    0.84447   1.00
H2       0.40420    0.28545    0.85745   1.00
H2       0.39993    0.32117    0.83756   1.00
H2       0.33405    0.25886    0.84647   1.00
C3       0.42336    0.14676    0.80706   1.00
H1       0.43341    0.11878    0.79919   1.00
C3       0.45028    0.25643    0.81723   1.00
H1       0.47780    0.30344    0.81615   1.00
C2       0.46307    0.21603    0.80523   1.00
C2       0.92651    0.10903    0.87172   1.00
C3       0.91244    0.08947    0.85249   1.00
H1       0.92250    0.05700    0.84761   1.00
C3       0.91312    0.15791    0.87838   1.00
H1       0.92351    0.17307    0.89171   1.00
C4       0.88374    0.11559    0.83947   1.00
C5       0.86795    0.09353    0.81741   1.00
H2       0.90765    0.12053    0.80926   1.00
H2       0.85499    0.04631    0.81627   1.00
H2       0.83122    0.09966    0.81280   1.00
C4       0.88451    0.18571    0.86585   1.00
C5       0.87091    0.24266    0.87351   1.00
H2       0.82476    0.22281    0.87812   1.00
H2       0.90152    0.26704    0.88442   1.00
H2       0.87819    0.27365    0.86260   1.00
C6       0.87056    0.16549    0.84603   1.00
C6       0.84092    0.19591    0.83237   1.00
C4       0.88282    0.25155    0.82034   1.00
C5       0.95781    0.28623    0.82288   1.00
H2       0.97626    0.26658    0.81376   1.00
H2       0.97715    0.33364    0.81998   1.00
H2       0.96829    0.28049    0.83665   1.00
C4       0.77032    0.16579    0.83181   1.00
C5       0.72166    0.10381    0.84447   1.00
H2       0.71455    0.11874    0.85745   1.00
H2       0.67883    0.07875    0.83756   1.00
H2       0.74114    0.07518    0.84647   1.00
C3       0.85324    0.27659    0.80706   1.00
H1       0.88122    0.31462    0.79919   1.00
C3       0.74357    0.19384    0.81723   1.00
H1       0.69656    0.17435    0.81615   1.00
C2       0.78397    0.24703    0.80523   1.00
C2       0.15081    0.55763    0.29494   1.00
C3       0.15630    0.57719    0.31417   1.00
H1       0.19883    0.60966    0.31905   1.00
C3       0.08854    0.50875    0.28828   1.00
H1       0.08377    0.49359    0.27495   1.00
C4       0.10148    0.55107    0.32719   1.00
C5       0.10775    0.57313    0.34925   1.00
H2       0.12045    0.54613    0.35740   1.00
H2       0.14201    0.62035    0.35039   1.00
H2       0.06489    0.56700    0.35386   1.00
C4       0.03213    0.48095    0.30081   1.00
C5       0.96158    0.42400    0.29315   1.00
H2       0.93528    0.44385    0.28854   1.00
H2       0.96781    0.39962    0.28224   1.00
H2       0.93787    0.39301    0.30406   1.00
C6       0.03840    0.50117    0.32063   1.00
C6       0.97834    0.47075    0.33429   1.00
C4       0.96460    0.41511    0.34632   1.00
C5       0.00491    0.38043    0.34378   1.00
H2       0.04301    0.40008    0.35290   1.00
H2       0.97684    0.33302    0.34668   1.00
H2       0.02113    0.38617    0.33001   1.00
C4       0.93786    0.50087    0.33485   1.00
C5       0.95118    0.56285    0.32219   1.00
H2       0.92914    0.54792    0.30921   1.00
H2       0.93341    0.58791    0.32910   1.00
H2       0.99929    0.59148    0.32019   1.00
C3       0.90998    0.39007    0.35960   1.00
H1       0.89993    0.35204    0.36747   1.00
C3       0.88306    0.47282    0.34943   1.00
H1       0.85554    0.49231    0.35051   1.00
C2       0.87027    0.41963    0.36143   1.00
C2       0.40683    0.84919    0.29494   1.00
C3       0.42090    0.84370    0.31417   1.00
H1       0.41084    0.80117    0.31905   1.00
C3       0.42022    0.91146    0.28828   1.00
H1       0.40983    0.91623    0.27495   1.00
C4       0.44960    0.89852    0.32719   1.00
C5       0.46539    0.89225    0.34925   1.00
H2       0.42569    0.87955    0.35740   1.00
H2       0.47835    0.85799    0.35039   1.00
H2       0.50212    0.93511    0.35386   1.00
C4       0.44883    0.96787    0.30081   1.00
C5       0.46243    0.03842    0.29315   1.00
H2       0.50858    0.06472    0.28854   1.00
H2       0.43182    0.03219    0.28224   1.00
H2       0.45515    0.06213    0.30406   1.00
C6       0.46278    0.96160    0.32063   1.00
C6       0.49242    0.02166    0.33429   1.00
C4       0.45052    0.03540    0.34632   1.00
C5       0.37553    0.99509    0.34378   1.00
H2       0.35708    0.95699    0.35290   1.00
H2       0.35619    0.02316    0.34668   1.00
H2       0.36505    0.97887    0.33001   1.00
C4       0.56302    0.06214    0.33485   1.00
C5       0.61168    0.04882    0.32219   1.00
H2       0.61879    0.07086    0.30921   1.00
H2       0.65451    0.06659    0.32910   1.00
H2       0.59220    0.00071    0.32019   1.00
C3       0.48010    0.09002    0.35960   1.00
H1       0.45212    0.10007    0.36747   1.00
C3       0.58977    0.11694    0.34943   1.00
H1       0.63678    0.14446    0.35051   1.00
C2       0.54937    0.12973    0.36143   1.00
C2       0.44237    0.59317    0.29494   1.00
C3       0.42281    0.57910    0.31417   1.00
H1       0.39034    0.58916    0.31905   1.00
C3       0.49125    0.57978    0.28828   1.00
H1       0.50641    0.59017    0.27495   1.00
C4       0.44893    0.55040    0.32719   1.00
C5       0.42687    0.53461    0.34925   1.00
H2       0.45387    0.57431    0.35740   1.00
H2       0.37965    0.52165    0.35039   1.00
H2       0.43300    0.49788    0.35386   1.00
C4       0.51905    0.55117    0.30081   1.00
C5       0.57600    0.53757    0.29315   1.00
H2       0.55615    0.49142    0.28854   1.00
H2       0.60038    0.56818    0.28224   1.00
H2       0.60699    0.54485    0.30406   1.00
C6       0.49883    0.53722    0.32063   1.00
C6       0.52925    0.50758    0.33429   1.00
C4       0.58489    0.54948    0.34632   1.00
C5       0.61957    0.62447    0.34378   1.00
H2       0.59992    0.64292    0.35290   1.00
H2       0.66698    0.64381    0.34668   1.00
H2       0.61383    0.63495    0.33001   1.00
C4       0.49913    0.43698    0.33485   1.00
C5       0.43715    0.38832    0.32219   1.00
H2       0.45208    0.38121    0.30921   1.00
H2       0.41209    0.34549    0.32910   1.00
H2       0.40852    0.40780    0.32019   1.00
C3       0.60993    0.51990    0.35960   1.00
H1       0.64796    0.54788    0.36747   1.00
C3       0.52718    0.41023    0.34943   1.00
H1       0.50769    0.36322    0.35051   1.00
C2       0.58037    0.45063    0.36143   1.00
C2       0.10903    0.18253    0.12828   1.00
C3       0.08947    0.17704    0.14751   1.00
H1       0.05700    0.13451    0.15239   1.00
C3       0.15791    0.24480    0.12162   1.00
H1       0.17307    0.24957    0.10829   1.00
C4       0.11559    0.23186    0.16053   1.00
C5       0.09353    0.22559    0.18259   1.00
H2       0.12053    0.21289    0.19074   1.00
H2       0.04631    0.19133    0.18373   1.00
H2       0.09966    0.26845    0.18720   1.00
C4       0.18571    0.30121    0.13415   1.00
C5       0.24266    0.37176    0.12649   1.00
H2       0.22281    0.39806    0.12188   1.00
H2       0.26704    0.36553    0.11558   1.00
H2       0.27365    0.39547    0.13740   1.00
C6       0.16549    0.29494    0.15397   1.00
C6       0.19591    0.35500    0.16763   1.00
C4       0.25155    0.36874    0.17966   1.00
C5       0.28623    0.32843    0.17712   1.00
H2       0.26658    0.29033    0.18624   1.00
H2       0.33364    0.35650    0.18002   1.00
H2       0.28049    0.31221    0.16335   1.00
C4       0.16579    0.39548    0.16819   1.00
C5       0.10381    0.38216    0.15553   1.00
H2       0.11874    0.40420    0.14255   1.00
H2       0.07875    0.39993    0.16244   1.00
H2       0.07518    0.33405    0.15353   1.00
C3       0.27659    0.42336    0.19294   1.00
H1       0.31462    0.43341    0.20081   1.00
C3       0.19384    0.45028    0.18277   1.00
H1       0.17435    0.47780    0.18385   1.00
C2       0.24703    0.46307    0.19477   1.00
C2       0.81747    0.92651    0.12828   1.00
C3       0.82296    0.91244    0.14751   1.00
H1       0.86549    0.92250    0.15239   1.00
C3       0.75520    0.91312    0.12162   1.00
H1       0.75043    0.92351    0.10829   1.00
C4       0.76814    0.88374    0.16053   1.00
C5       0.77441    0.86795    0.18259   1.00
H2       0.78711    0.90765    0.19074   1.00
H2       0.80867    0.85499    0.18373   1.00
H2       0.73155    0.83122    0.18720   1.00
C4       0.69879    0.88451    0.13415   1.00
C5       0.62824    0.87091    0.12649   1.00
H2       0.60194    0.82476    0.12188   1.00
H2       0.63447    0.90152    0.11558   1.00
H2       0.60453    0.87819    0.13740   1.00
C6       0.70506    0.87056    0.15397   1.00
C6       0.64500    0.84092    0.16763   1.00
C4       0.63126    0.88282    0.17966   1.00
C5       0.67157    0.95781    0.17712   1.00
H2       0.70967    0.97626    0.18624   1.00
H2       0.64350    0.97715    0.18002   1.00
H2       0.68779    0.96829    0.16335   1.00
C4       0.60452    0.77032    0.16819   1.00
C5       0.61784    0.72166    0.15553   1.00
H2       0.59580    0.71455    0.14255   1.00
H2       0.60007    0.67883    0.16244   1.00
H2       0.66595    0.74114    0.15353   1.00
C3       0.57664    0.85324    0.19294   1.00
H1       0.56659    0.88122    0.20081   1.00
C3       0.54972    0.74357    0.18277   1.00
H1       0.52220    0.69656    0.18385   1.00
C2       0.53693    0.78397    0.19477   1.00
C2       0.07349    0.89097    0.12828   1.00
C3       0.08756    0.91053    0.14751   1.00
H1       0.07750    0.94300    0.15239   1.00
C3       0.08688    0.84209    0.12162   1.00
H1       0.07649    0.82693    0.10829   1.00
C4       0.11626    0.88441    0.16053   1.00
C5       0.13205    0.90647    0.18259   1.00
H2       0.09235    0.87947    0.19074   1.00
H2       0.14501    0.95369    0.18373   1.00
H2       0.16878    0.90034    0.18720   1.00
C4       0.11549    0.81429    0.13415   1.00
C5       0.12909    0.75734    0.12649   1.00
H2       0.17524    0.77719    0.12188   1.00
H2       0.09848    0.73296    0.11558   1.00
H2       0.12181    0.72635    0.13740   1.00
C6       0.12944    0.83451    0.15397   1.00
C6       0.15908    0.80409    0.16763   1.00
C4       0.11718    0.74845    0.17966   1.00
C5       0.04219    0.71377    0.17712   1.00
H2       0.02374    0.73342    0.18624   1.00
H2       0.02285    0.66636    0.18002   1.00
H2       0.03171    0.71951    0.16335   1.00
C4       0.22968    0.83421    0.16819   1.00
C5       0.27834    0.89619    0.15553   1.00
H2       0.28545    0.88126    0.14255   1.00
H2       0.32117    0.92125    0.16244   1.00
H2       0.25886    0.92482    0.15353   1.00
C3       0.14676    0.72341    0.19294   1.00
H1       0.11878    0.68538    0.20081   1.00
C3       0.25643    0.80616    0.18277   1.00
H1       0.30344    0.82565    0.18385   1.00
C2       0.21603    0.75297    0.19477   1.00
C2       0.84919    0.44237    0.70506   1.00
C3       0.84370    0.42281    0.68583   1.00
H1       0.80117    0.39034    0.68095   1.00
C3       0.91146    0.49125    0.71172   1.00
H1       0.91623    0.50641    0.72505   1.00
C4       0.89852    0.44893    0.67281   1.00
C5       0.89225    0.42687    0.65075   1.00
H2       0.87955    0.45387    0.64260   1.00
H2       0.85799    0.37965    0.64961   1.00
H2       0.93511    0.43300    0.64614   1.00
C4       0.96787    0.51905    0.69919   1.00
C5       0.03842    0.57600    0.70685   1.00
H2       0.06472    0.55615    0.71146   1.00
H2       0.03219    0.60038    0.71776   1.00
H2       0.06213    0.60699    0.69594   1.00
C6       0.96160    0.49883    0.67937   1.00
C6       0.02166    0.52925    0.66571   1.00
C4       0.03540    0.58489    0.65368   1.00
C5       0.99509    0.61957    0.65622   1.00
H2       0.95699    0.59992    0.64710   1.00
H2       0.02316    0.66698    0.65332   1.00
H2       0.97887    0.61383    0.66999   1.00
C4       0.06214    0.49913    0.66515   1.00
C5       0.04882    0.43715    0.67781   1.00
H2       0.07086    0.45208    0.69079   1.00
H2       0.06659    0.41209    0.67090   1.00
H2       0.00071    0.40852    0.67981   1.00
C3       0.09002    0.60993    0.64040   1.00
H1       0.10007    0.64796    0.63253   1.00
C3       0.11694    0.52718    0.65057   1.00
H1       0.14446    0.50769    0.64949   1.00
C2       0.12973    0.58037    0.63857   1.00
C2       0.59317    0.15081    0.70506   1.00
C3       0.57910    0.15630    0.68583   1.00
H1       0.58916    0.19883    0.68095   1.00
C3       0.57978    0.08854    0.71172   1.00
H1       0.59017    0.08377    0.72505   1.00
C4       0.55040    0.10148    0.67281   1.00
C5       0.53461    0.10775    0.65075   1.00
H2       0.57431    0.12045    0.64260   1.00
H2       0.52165    0.14201    0.64961   1.00
H2       0.49788    0.06489    0.64614   1.00
C4       0.55117    0.03213    0.69919   1.00
C5       0.53757    0.96158    0.70685   1.00
H2       0.49142    0.93528    0.71146   1.00
H2       0.56818    0.96781    0.71776   1.00
H2       0.54485    0.93787    0.69594   1.00
C6       0.53722    0.03840    0.67937   1.00
C6       0.50758    0.97834    0.66571   1.00
C4       0.54948    0.96460    0.65368   1.00
C5       0.62447    0.00491    0.65622   1.00
H2       0.64292    0.04301    0.64710   1.00
H2       0.64381    0.97684    0.65332   1.00
H2       0.63495    0.02113    0.66999   1.00
C4       0.43698    0.93786    0.66515   1.00
C5       0.38832    0.95118    0.67781   1.00
H2       0.38121    0.92914    0.69079   1.00
H2       0.34549    0.93341    0.67090   1.00
H2       0.40780    0.99929    0.67981   1.00
C3       0.51990    0.90998    0.64040   1.00
H1       0.54788    0.89993    0.63253   1.00
C3       0.41023    0.88306    0.65057   1.00
H1       0.36322    0.85554    0.64949   1.00
C2       0.45063    0.87027    0.63857   1.00
C2       0.55763    0.40683    0.70506   1.00
C3       0.57719    0.42090    0.68583   1.00
H1       0.60966    0.41084    0.68095   1.00
C3       0.50875    0.42022    0.71172   1.00
H1       0.49359    0.40983    0.72505   1.00
C4       0.55107    0.44960    0.67281   1.00
C5       0.57313    0.46539    0.65075   1.00
H2       0.54613    0.42569    0.64260   1.00
H2       0.62035    0.47835    0.64961   1.00
H2       0.56700    0.50212    0.64614   1.00
C4       0.48095    0.44883    0.69919   1.00
C5       0.42400    0.46243    0.70685   1.00
H2       0.44385    0.50858    0.71146   1.00
H2       0.39962    0.43182    0.71776   1.00
H2       0.39301    0.45515    0.69594   1.00
C6       0.50117    0.46278    0.67937   1.00
C6       0.47075    0.49242    0.66571   1.00
C4       0.41511    0.45052    0.65368   1.00
C5       0.38043    0.37553    0.65622   1.00
H2       0.40008    0.35708    0.64710   1.00
H2       0.33302    0.35619    0.65332   1.00
H2       0.38617    0.36505    0.66999   1.00
C4       0.50087    0.56302    0.66515   1.00
C5       0.56285    0.61168    0.67781   1.00
H2       0.54792    0.61879    0.69079   1.00
H2       0.58791    0.65451    0.67090   1.00
H2       0.59148    0.59220    0.67981   1.00
C3       0.39007    0.48010    0.64040   1.00
H1       0.35204    0.45212    0.63253   1.00
C3       0.47282    0.58977    0.65057   1.00
H1       0.49231    0.63678    0.64949   1.00
C2       0.41963    0.54937    0.63857   1.00
C2       0.55763    0.15081    0.20506   1.00
C3       0.57719    0.15630    0.18583   1.00
H1       0.60966    0.19883    0.18095   1.00
C3       0.50875    0.08854    0.21172   1.00
H1       0.49359    0.08377    0.22505   1.00
C4       0.55107    0.10148    0.17281   1.00
C5       0.57313    0.10775    0.15075   1.00
H2       0.54613    0.12045    0.14260   1.00
H2       0.62035    0.14201    0.14961   1.00
H2       0.56700    0.06489    0.14614   1.00
C4       0.48095    0.03213    0.19919   1.00
C5       0.42400    0.96158    0.20685   1.00
H2       0.44385    0.93528    0.21146   1.00
H2       0.39962    0.96781    0.21776   1.00
H2       0.39301    0.93787    0.19594   1.00
C6       0.50117    0.03840    0.17937   1.00
C6       0.47075    0.97834    0.16571   1.00
C4       0.41511    0.96460    0.15368   1.00
C5       0.38043    0.00491    0.15622   1.00
H2       0.40008    0.04301    0.14710   1.00
H2       0.33302    0.97684    0.15332   1.00
H2       0.38617    0.02113    0.16999   1.00
C4       0.50087    0.93786    0.16515   1.00
C5       0.56285    0.95118    0.17781   1.00
H2       0.54792    0.92914    0.19079   1.00
H2       0.58791    0.93341    0.17090   1.00
H2       0.59148    0.99929    0.17981   1.00
C3       0.39007    0.90998    0.14040   1.00
H1       0.35204    0.89993    0.13253   1.00
C3       0.47282    0.88306    0.15057   1.00
H1       0.49231    0.85554    0.14949   1.00
C2       0.41963    0.87027    0.13857   1.00
C2       0.84919    0.40683    0.20506   1.00
C3       0.84370    0.42090    0.18583   1.00
H1       0.80117    0.41084    0.18095   1.00
C3       0.91146    0.42022    0.21172   1.00
H1       0.91623    0.40983    0.22505   1.00
C4       0.89852    0.44960    0.17281   1.00
C5       0.89225    0.46539    0.15075   1.00
H2       0.87955    0.42569    0.14260   1.00
H2       0.85799    0.47835    0.14961   1.00
H2       0.93511    0.50212    0.14614   1.00
C4       0.96787    0.44883    0.19919   1.00
C5       0.03842    0.46243    0.20685   1.00
H2       0.06472    0.50858    0.21146   1.00
H2       0.03219    0.43182    0.21776   1.00
H2       0.06213    0.45515    0.19594   1.00
C6       0.96160    0.46278    0.17937   1.00
C6       0.02166    0.49242    0.16571   1.00
C4       0.03540    0.45052    0.15368   1.00
C5       0.99509    0.37553    0.15622   1.00
H2       0.95699    0.35708    0.14710   1.00
H2       0.02316    0.35619    0.15332   1.00
H2       0.97887    0.36505    0.16999   1.00
C4       0.06214    0.56302    0.16515   1.00
C5       0.04882    0.61168    0.17781   1.00
H2       0.07086    0.61879    0.19079   1.00
H2       0.06659    0.65451    0.17090   1.00
H2       0.00071    0.59220    0.17981   1.00
C3       0.09002    0.48010    0.14040   1.00
H1       0.10007    0.45212    0.13253   1.00
C3       0.11694    0.58977    0.15057   1.00
H1       0.14446    0.63678    0.14949   1.00
C2       0.12973    0.54937    0.13857   1.00
C2       0.59317    0.44237    0.20506   1.00
C3       0.57910    0.42281    0.18583   1.00
H1       0.58916    0.39034    0.18095   1.00
C3       0.57978    0.49125    0.21172   1.00
H1       0.59017    0.50641    0.22505   1.00
C4       0.55040    0.44893    0.17281   1.00
C5       0.53461    0.42687    0.15075   1.00
H2       0.57431    0.45387    0.14260   1.00
H2       0.52165    0.37965    0.14961   1.00
H2       0.49788    0.43300    0.14614   1.00
C4       0.55117    0.51905    0.19919   1.00
C5       0.53757    0.57600    0.20685   1.00
H2       0.49142    0.55615    0.21146   1.00
H2       0.56818    0.60038    0.21776   1.00
H2       0.54485    0.60699    0.19594   1.00
C6       0.53722    0.49883    0.17937   1.00
C6       0.50758    0.52925    0.16571   1.00
C4       0.54948    0.58489    0.15368   1.00
C5       0.62447    0.61957    0.15622   1.00
H2       0.64292    0.59992    0.14710   1.00
H2       0.64381    0.66698    0.15332   1.00
H2       0.63495    0.61383    0.16999   1.00
C4       0.43698    0.49913    0.16515   1.00
C5       0.38832    0.43715    0.17781   1.00
H2       0.38121    0.45208    0.19079   1.00
H2       0.34549    0.41209    0.17090   1.00
H2       0.40780    0.40852    0.17981   1.00
C3       0.51990    0.60993    0.14040   1.00
H1       0.54788    0.64796    0.13253   1.00
C3       0.41023    0.52718    0.15057   1.00
H1       0.36322    0.50769    0.14949   1.00
C2       0.45063    0.58037    0.13857   1.00
C2       0.81747    0.89097    0.62828   1.00
C3       0.82296    0.91053    0.64751   1.00
H1       0.86549    0.94300    0.65239   1.00
C3       0.75520    0.84209    0.62162   1.00
H1       0.75043    0.82693    0.60829   1.00
C4       0.76814    0.88441    0.66053   1.00
C5       0.77441    0.90647    0.68259   1.00
H2       0.78711    0.87947    0.69074   1.00
H2       0.80867    0.95369    0.68373   1.00
H2       0.73155    0.90034    0.68720   1.00
C4       0.69879    0.81429    0.63415   1.00
C5       0.62824    0.75734    0.62649   1.00
H2       0.60194    0.77719    0.62188   1.00
H2       0.63447    0.73296    0.61558   1.00
H2       0.60453    0.72635    0.63740   1.00
C6       0.70506    0.83451    0.65397   1.00
C6       0.64500    0.80409    0.66763   1.00
C4       0.63126    0.74845    0.67966   1.00
C5       0.67157    0.71377    0.67712   1.00
H2       0.70967    0.73342    0.68624   1.00
H2       0.64350    0.66636    0.68002   1.00
H2       0.68779    0.71951    0.66335   1.00
C4       0.60452    0.83421    0.66819   1.00
C5       0.61784    0.89619    0.65553   1.00
H2       0.59580    0.88126    0.64255   1.00
H2       0.60007    0.92125    0.66244   1.00
H2       0.66595    0.92482    0.65353   1.00
C3       0.57664    0.72341    0.69294   1.00
H1       0.56659    0.68538    0.70081   1.00
C3       0.54972    0.80616    0.68277   1.00
H1       0.52220    0.82565    0.68385   1.00
C2       0.53693    0.75297    0.69477   1.00
C2       0.07349    0.18253    0.62828   1.00
C3       0.08756    0.17704    0.64751   1.00
H1       0.07750    0.13451    0.65239   1.00
C3       0.08688    0.24480    0.62162   1.00
H1       0.07649    0.24957    0.60829   1.00
C4       0.11626    0.23186    0.66053   1.00
C5       0.13205    0.22559    0.68259   1.00
H2       0.09235    0.21289    0.69074   1.00
H2       0.14501    0.19133    0.68373   1.00
H2       0.16878    0.26845    0.68720   1.00
C4       0.11549    0.30121    0.63415   1.00
C5       0.12909    0.37176    0.62649   1.00
H2       0.17524    0.39806    0.62188   1.00
H2       0.09848    0.36553    0.61558   1.00
H2       0.12181    0.39547    0.63740   1.00
C6       0.12944    0.29494    0.65397   1.00
C6       0.15908    0.35500    0.66763   1.00
C4       0.11718    0.36874    0.67966   1.00
C5       0.04219    0.32843    0.67712   1.00
H2       0.02374    0.29033    0.68624   1.00
H2       0.02285    0.35650    0.68002   1.00
H2       0.03171    0.31221    0.66335   1.00
C4       0.22968    0.39548    0.66819   1.00
C5       0.27834    0.38216    0.65553   1.00
H2       0.28545    0.40420    0.64255   1.00
H2       0.32117    0.39993    0.66244   1.00
H2       0.25886    0.33405    0.65353   1.00
C3       0.14676    0.42336    0.69294   1.00
H1       0.11878    0.43341    0.70081   1.00
C3       0.25643    0.45028    0.68277   1.00
H1       0.30344    0.47780    0.68385   1.00
C2       0.21603    0.46307    0.69477   1.00
C2       0.10903    0.92651    0.62828   1.00
C3       0.08947    0.91244    0.64751   1.00
H1       0.05700    0.92250    0.65239   1.00
C3       0.15791    0.91312    0.62162   1.00
H1       0.17307    0.92351    0.60829   1.00
C4       0.11559    0.88374    0.66053   1.00
C5       0.09353    0.86795    0.68259   1.00
H2       0.12053    0.90765    0.69074   1.00
H2       0.04631    0.85499    0.68373   1.00
H2       0.09966    0.83122    0.68720   1.00
C4       0.18571    0.88451    0.63415   1.00
C5       0.24266    0.87091    0.62649   1.00
H2       0.22281    0.82476    0.62188   1.00
H2       0.26704    0.90152    0.61558   1.00
H2       0.27365    0.87819    0.63740   1.00
C6       0.16549    0.87056    0.65397   1.00
C6       0.19591    0.84092    0.66763   1.00
C4       0.25155    0.88282    0.67966   1.00
C5       0.28623    0.95781    0.67712   1.00
H2       0.26658    0.97626    0.68624   1.00
H2       0.33364    0.97715    0.68002   1.00
H2       0.28049    0.96829    0.66335   1.00
C4       0.16579    0.77032    0.66819   1.00
C5       0.10381    0.72166    0.65553   1.00
H2       0.11874    0.71455    0.64255   1.00
H2       0.07875    0.67883    0.66244   1.00
H2       0.07518    0.74114    0.65353   1.00
C3       0.27659    0.85324    0.69294   1.00
H1       0.31462    0.88122    0.70081   1.00
C3       0.19384    0.74357    0.68277   1.00
H1       0.17435    0.69656    0.68385   1.00
C2       0.24703    0.78397    0.69477   1.00
