data_IRMOF10_interpen_symm_ligand1cp_symm_k

_audit_creation_method             'generated by an auxiliary program of Tobunporous'

_symmetry_space_group_name_H-M     'P 1'
_symmetry_Int_Tables_number        1
_symmetry_cell_setting             triclinic

_cell_length_a                    22.6523
_cell_length_b                    22.6523
_cell_length_c                    65.9502
_cell_angle_alpha                 90.0000
_cell_angle_beta                  90.0000
_cell_angle_gamma                 120.0000

loop_
_atom_site_label
_atom_site_fract_x
_atom_site_fract_y
_atom_site_fract_z
_atom_site_occupancy
O1       0.00000    0.00000    0.57470   1.00
Zn      0.00000    0.00000    0.54560   1.00
Zn      0.94843    0.04287    0.58357   1.00
Zn      0.09443    0.05157    0.58357   1.00
Zn      0.95713    0.90557    0.58357   1.00
O2       0.93860    0.02610    0.53560   1.00
O2       0.08750    0.06140    0.53560   1.00
O2       0.97390    0.91250    0.53560   1.00
O2       0.91300    0.07160    0.56150   1.00
O2       0.00463    0.12027    0.60077   1.00
O2       0.87413    0.98077    0.60037   1.00
O2       0.15860    0.08700    0.56150   1.00
O2       0.10663    0.12587    0.60037   1.00
O2       0.11563    0.99537    0.60077   1.00
O2       0.92840    0.84140    0.56150   1.00
O2       0.87973    0.88437    0.60077   1.00
O2       0.01923    0.89337    0.60037   1.00
C1       0.91390    0.06020    0.54330   1.00
C1       0.14630    0.08610    0.54330   1.00
C1       0.93980    0.85370    0.54330   1.00
C1       0.06663    0.14397    0.60637   1.00
C1       0.85603    0.92267    0.60637   1.00
C1       0.07733    0.93337    0.60637   1.00
O1       0.00000    0.00000    0.92530   1.00
Zn      0.00000    0.00000    0.95440   1.00
Zn      0.04287    0.94843    0.91643   1.00
Zn      0.05157    0.09443    0.91643   1.00
Zn      0.90557    0.95713    0.91643   1.00
O2       0.02610    0.93860    0.96440   1.00
O2       0.06140    0.08750    0.96440   1.00
O2       0.91250    0.97390    0.96440   1.00
O2       0.07160    0.91300    0.93850   1.00
O2       0.12027    0.00463    0.89923   1.00
O2       0.98077    0.87413    0.89963   1.00
O2       0.08700    0.15860    0.93850   1.00
O2       0.12587    0.10663    0.89963   1.00
O2       0.99537    0.11563    0.89923   1.00
O2       0.84140    0.92840    0.93850   1.00
O2       0.88437    0.87973    0.89923   1.00
O2       0.89337    0.01923    0.89963   1.00
C1       0.06020    0.91390    0.95670   1.00
C1       0.08610    0.14630    0.95670   1.00
C1       0.85370    0.93980    0.95670   1.00
C1       0.14397    0.06663    0.89363   1.00
C1       0.92267    0.85603    0.89363   1.00
C1       0.93337    0.07733    0.89363   1.00
O1       0.00000    0.00000    0.42530   1.00
Zn      0.00000    0.00000    0.45440   1.00
Zn      0.05157    0.95713    0.41643   1.00
Zn      0.90557    0.94843    0.41643   1.00
Zn      0.04287    0.09443    0.41643   1.00
O2       0.06140    0.97390    0.46440   1.00
O2       0.91250    0.93860    0.46440   1.00
O2       0.02610    0.08750    0.46440   1.00
O2       0.08700    0.92840    0.43850   1.00
O2       0.99537    0.87973    0.39923   1.00
O2       0.12587    0.01923    0.39963   1.00
O2       0.84140    0.91300    0.43850   1.00
O2       0.89337    0.87413    0.39963   1.00
O2       0.88437    0.00463    0.39923   1.00
O2       0.07160    0.15860    0.43850   1.00
O2       0.12027    0.11563    0.39923   1.00
O2       0.98077    0.10663    0.39963   1.00
C1       0.08610    0.93980    0.45670   1.00
C1       0.85370    0.91390    0.45670   1.00
C1       0.06020    0.14630    0.45670   1.00
C1       0.93337    0.85603    0.39363   1.00
C1       0.14397    0.07733    0.39363   1.00
C1       0.92267    0.06663    0.39363   1.00
O1       0.00000    0.00000    0.07470   1.00
Zn      0.00000    0.00000    0.04560   1.00
Zn      0.95713    0.05157    0.08357   1.00
Zn      0.94843    0.90557    0.08357   1.00
Zn      0.09443    0.04287    0.08357   1.00
O2       0.97390    0.06140    0.03560   1.00
O2       0.93860    0.91250    0.03560   1.00
O2       0.08750    0.02610    0.03560   1.00
O2       0.92840    0.08700    0.06150   1.00
O2       0.87973    0.99537    0.10077   1.00
O2       0.01923    0.12587    0.10037   1.00
O2       0.91300    0.84140    0.06150   1.00
O2       0.87413    0.89337    0.10037   1.00
O2       0.00463    0.88437    0.10077   1.00
O2       0.15860    0.07160    0.06150   1.00
O2       0.11563    0.12027    0.10077   1.00
O2       0.10663    0.98077    0.10037   1.00
C1       0.93980    0.08610    0.04330   1.00
C1       0.91390    0.85370    0.04330   1.00
C1       0.14630    0.06020    0.04330   1.00
C1       0.85603    0.93337    0.10637   1.00
C1       0.07733    0.14397    0.10637   1.00
C1       0.06663    0.92267    0.10637   1.00
O1       0.66667    0.33333    0.90803   1.00
Zn      0.66667    0.33333    0.87893   1.00
Zn      0.61510    0.37620    0.91690   1.00
Zn      0.76110    0.38490    0.91690   1.00
Zn      0.62380    0.23890    0.91690   1.00
O2       0.60527    0.35943    0.86893   1.00
O2       0.75417    0.39473    0.86893   1.00
O2       0.64057    0.24583    0.86893   1.00
O2       0.57967    0.40493    0.89483   1.00
O2       0.67130    0.45360    0.93410   1.00
O2       0.54080    0.31410    0.93370   1.00
O2       0.82527    0.42033    0.89483   1.00
O2       0.77330    0.45920    0.93370   1.00
O2       0.78230    0.32870    0.93410   1.00
O2       0.59507    0.17473    0.89483   1.00
O2       0.54640    0.21770    0.93410   1.00
O2       0.68590    0.22670    0.93370   1.00
C1       0.58057    0.39353    0.87663   1.00
C1       0.81297    0.41943    0.87663   1.00
C1       0.60647    0.18703    0.87663   1.00
C1       0.73330    0.47730    0.93970   1.00
C1       0.52270    0.25600    0.93970   1.00
C1       0.74400    0.26670    0.93970   1.00
O1       0.66667    0.33333    0.25863   1.00
Zn      0.66667    0.33333    0.28773   1.00
Zn      0.70953    0.28177    0.24977   1.00
Zn      0.71823    0.42777    0.24977   1.00
Zn      0.57223    0.29047    0.24977   1.00
O2       0.69277    0.27193    0.29773   1.00
O2       0.72807    0.42083    0.29773   1.00
O2       0.57917    0.30723    0.29773   1.00
O2       0.73827    0.24633    0.27183   1.00
O2       0.78693    0.33797    0.23257   1.00
O2       0.64743    0.20747    0.23297   1.00
O2       0.75367    0.49193    0.27183   1.00
O2       0.79253    0.43997    0.23297   1.00
O2       0.66203    0.44897    0.23257   1.00
O2       0.50807    0.26173    0.27183   1.00
O2       0.55103    0.21307    0.23257   1.00
O2       0.56003    0.35257    0.23297   1.00
C1       0.72687    0.24723    0.29003   1.00
C1       0.75277    0.47963    0.29003   1.00
C1       0.52037    0.27313    0.29003   1.00
C1       0.81063    0.39997    0.22697   1.00
C1       0.58933    0.18937    0.22697   1.00
C1       0.60003    0.41067    0.22697   1.00
O1       0.66667    0.33333    0.75863   1.00
Zn      0.66667    0.33333    0.78773   1.00
Zn      0.71823    0.29047    0.74977   1.00
Zn      0.57223    0.28177    0.74977   1.00
Zn      0.70953    0.42777    0.74977   1.00
O2       0.72807    0.30723    0.79773   1.00
O2       0.57917    0.27193    0.79773   1.00
O2       0.69277    0.42083    0.79773   1.00
O2       0.75367    0.26173    0.77183   1.00
O2       0.66203    0.21307    0.73257   1.00
O2       0.79253    0.35257    0.73297   1.00
O2       0.50807    0.24633    0.77183   1.00
O2       0.56003    0.20747    0.73297   1.00
O2       0.55103    0.33797    0.73257   1.00
O2       0.73827    0.49193    0.77183   1.00
O2       0.78693    0.44897    0.73257   1.00
O2       0.64743    0.43997    0.73297   1.00
C1       0.75277    0.27313    0.79003   1.00
C1       0.52037    0.24723    0.79003   1.00
C1       0.72687    0.47963    0.79003   1.00
C1       0.60003    0.18937    0.72697   1.00
C1       0.81063    0.41067    0.72697   1.00
C1       0.58933    0.39997    0.72697   1.00
O1       0.66667    0.33333    0.40803   1.00
Zn      0.66667    0.33333    0.37893   1.00
Zn      0.62380    0.38490    0.41690   1.00
Zn      0.61510    0.23890    0.41690   1.00
Zn      0.76110    0.37620    0.41690   1.00
O2       0.64057    0.39473    0.36893   1.00
O2       0.60527    0.24583    0.36893   1.00
O2       0.75417    0.35943    0.36893   1.00
O2       0.59507    0.42033    0.39483   1.00
O2       0.54640    0.32870    0.43410   1.00
O2       0.68590    0.45920    0.43370   1.00
O2       0.57967    0.17473    0.39483   1.00
O2       0.54080    0.22670    0.43370   1.00
O2       0.67130    0.21770    0.43410   1.00
O2       0.82527    0.40493    0.39483   1.00
O2       0.78230    0.45360    0.43410   1.00
O2       0.77330    0.31410    0.43370   1.00
C1       0.60647    0.41943    0.37663   1.00
C1       0.58057    0.18703    0.37663   1.00
C1       0.81297    0.39353    0.37663   1.00
C1       0.52270    0.26670    0.43970   1.00
C1       0.74400    0.47730    0.43970   1.00
C1       0.73330    0.25600    0.43970   1.00
O1       0.33333    0.66667    0.24137   1.00
Zn      0.33333    0.66667    0.21227   1.00
Zn      0.28177    0.70953    0.25023   1.00
Zn      0.42777    0.71823    0.25023   1.00
Zn      0.29047    0.57223    0.25023   1.00
O2       0.27193    0.69277    0.20227   1.00
O2       0.42083    0.72807    0.20227   1.00
O2       0.30723    0.57917    0.20227   1.00
O2       0.24633    0.73827    0.22817   1.00
O2       0.33797    0.78693    0.26743   1.00
O2       0.20747    0.64743    0.26703   1.00
O2       0.49193    0.75367    0.22817   1.00
O2       0.43997    0.79253    0.26703   1.00
O2       0.44897    0.66203    0.26743   1.00
O2       0.26173    0.50807    0.22817   1.00
O2       0.21307    0.55103    0.26743   1.00
O2       0.35257    0.56003    0.26703   1.00
C1       0.24723    0.72687    0.20997   1.00
C1       0.47963    0.75277    0.20997   1.00
C1       0.27313    0.52037    0.20997   1.00
C1       0.39997    0.81063    0.27303   1.00
C1       0.18937    0.58933    0.27303   1.00
C1       0.41067    0.60003    0.27303   1.00
O1       0.33333    0.66667    0.59197   1.00
Zn      0.33333    0.66667    0.62107   1.00
Zn      0.37620    0.61510    0.58310   1.00
Zn      0.38490    0.76110    0.58310   1.00
Zn      0.23890    0.62380    0.58310   1.00
O2       0.35943    0.60527    0.63107   1.00
O2       0.39473    0.75417    0.63107   1.00
O2       0.24583    0.64057    0.63107   1.00
O2       0.40493    0.57967    0.60517   1.00
O2       0.45360    0.67130    0.56590   1.00
O2       0.31410    0.54080    0.56630   1.00
O2       0.42033    0.82527    0.60517   1.00
O2       0.45920    0.77330    0.56630   1.00
O2       0.32870    0.78230    0.56590   1.00
O2       0.17473    0.59507    0.60517   1.00
O2       0.21770    0.54640    0.56590   1.00
O2       0.22670    0.68590    0.56630   1.00
C1       0.39353    0.58057    0.62337   1.00
C1       0.41943    0.81297    0.62337   1.00
C1       0.18703    0.60647    0.62337   1.00
C1       0.47730    0.73330    0.56030   1.00
C1       0.25600    0.52270    0.56030   1.00
C1       0.26670    0.74400    0.56030   1.00
O1       0.33333    0.66667    0.09197   1.00
Zn      0.33333    0.66667    0.12107   1.00
Zn      0.38490    0.62380    0.08310   1.00
Zn      0.23890    0.61510    0.08310   1.00
Zn      0.37620    0.76110    0.08310   1.00
O2       0.39473    0.64057    0.13107   1.00
O2       0.24583    0.60527    0.13107   1.00
O2       0.35943    0.75417    0.13107   1.00
O2       0.42033    0.59507    0.10517   1.00
O2       0.32870    0.54640    0.06590   1.00
O2       0.45920    0.68590    0.06630   1.00
O2       0.17473    0.57967    0.10517   1.00
O2       0.22670    0.54080    0.06630   1.00
O2       0.21770    0.67130    0.06590   1.00
O2       0.40493    0.82527    0.10517   1.00
O2       0.45360    0.78230    0.06590   1.00
O2       0.31410    0.77330    0.06630   1.00
C1       0.41943    0.60647    0.12337   1.00
C1       0.18703    0.58057    0.12337   1.00
C1       0.39353    0.81297    0.12337   1.00
C1       0.26670    0.52270    0.06030   1.00
C1       0.47730    0.74400    0.06030   1.00
C1       0.25600    0.73330    0.06030   1.00
O1       0.33333    0.66667    0.74137   1.00
Zn      0.33333    0.66667    0.71227   1.00
Zn      0.29047    0.71823    0.75023   1.00
Zn      0.28177    0.57223    0.75023   1.00
Zn      0.42777    0.70953    0.75023   1.00
O2       0.30723    0.72807    0.70227   1.00
O2       0.27193    0.57917    0.70227   1.00
O2       0.42083    0.69277    0.70227   1.00
O2       0.26173    0.75367    0.72817   1.00
O2       0.21307    0.66203    0.76743   1.00
O2       0.35257    0.79253    0.76703   1.00
O2       0.24633    0.50807    0.72817   1.00
O2       0.20747    0.56003    0.76703   1.00
O2       0.33797    0.55103    0.76743   1.00
O2       0.49193    0.73827    0.72817   1.00
O2       0.44897    0.78693    0.76743   1.00
O2       0.43997    0.64743    0.76703   1.00
C1       0.27313    0.75277    0.70997   1.00
C1       0.24723    0.52037    0.70997   1.00
C1       0.47963    0.72687    0.70997   1.00
C1       0.18937    0.60003    0.77303   1.00
C1       0.41067    0.81063    0.77303   1.00
C1       0.39997    0.58933    0.77303   1.00
C2       0.79393    0.54382    0.45236   1.00
C3       0.80268    0.60558    0.44907   1.00
H1       0.79186    0.61543    0.43638   1.00
C3       0.80827    0.52994    0.47118   1.00
H1       0.80155    0.48672    0.47390   1.00
C4       0.82691    0.65549    0.46373   1.00
C5       0.83661    0.72611    0.46001   1.00
H2       0.79462    0.72549    0.46264   1.00
H2       0.84984    0.73900    0.44616   1.00
H2       0.87150    0.75836    0.46883   1.00
C4       0.83254    0.57837    0.48638   1.00
C5       0.84726    0.56137    0.50795   1.00
H2       0.89449    0.57484    0.50908   1.00
H2       0.81972    0.51334    0.51038   1.00
H2       0.83646    0.58571    0.51782   1.00
C6       0.84101    0.64172    0.48286   1.00
C6       0.86593    0.69368    0.49919   1.00
C4       0.82023    0.70094    0.51144   1.00
C5       0.74628    0.65129    0.50996   1.00
H2       0.72576    0.66754    0.50039   1.00
H2       0.72558    0.64608    0.52294   1.00
H2       0.73992    0.60799    0.50547   1.00
C4       0.93604    0.73522    0.50137   1.00
C5       0.98872    0.73026    0.48811   1.00
H2       0.99921    0.69750    0.49386   1.00
H2       0.02948    0.77395    0.48742   1.00
H2       0.97049    0.71583    0.47475   1.00
C3       0.84529    0.75212    0.52590   1.00
H1       0.81479    0.75646    0.53438   1.00
C3       0.95789    0.78829    0.51642   1.00
H1       0.00435    0.81787    0.51810   1.00
C2       0.91370    0.79640    0.52810   1.00
C2       0.45618    0.25011    0.45236   1.00
C3       0.39442    0.19710    0.44907   1.00
H1       0.38457    0.17643    0.43638   1.00
C3       0.47006    0.27833    0.47118   1.00
H1       0.51328    0.31483    0.47390   1.00
C4       0.34451    0.17142    0.46373   1.00
C5       0.27389    0.11050    0.46001   1.00
H2       0.27451    0.06913    0.46264   1.00
H2       0.26100    0.11084    0.44616   1.00
H2       0.24164    0.11314    0.46883   1.00
C4       0.42163    0.25417    0.48638   1.00
C5       0.43863    0.28589    0.50795   1.00
H2       0.42516    0.31965    0.50908   1.00
H2       0.48666    0.30638    0.51038   1.00
H2       0.41429    0.25075    0.51782   1.00
C6       0.35828    0.19929    0.48286   1.00
C6       0.30632    0.17225    0.49919   1.00
C4       0.29906    0.11929    0.51144   1.00
C5       0.34871    0.09499    0.50996   1.00
H2       0.33246    0.05822    0.50039   1.00
H2       0.35392    0.07950    0.52294   1.00
H2       0.39201    0.13193    0.50547   1.00
C4       0.26478    0.20082    0.50137   1.00
C5       0.26974    0.25846    0.48811   1.00
H2       0.30250    0.30171    0.49386   1.00
H2       0.22605    0.25553    0.48742   1.00
H2       0.28417    0.25466    0.47475   1.00
C3       0.24788    0.09317    0.52590   1.00
H1       0.24354    0.05833    0.53438   1.00
C3       0.21171    0.16960    0.51642   1.00
H1       0.18213    0.18648    0.51810   1.00
C2       0.20360    0.11730    0.52810   1.00
C2       0.74989    0.20607    0.45236   1.00
C3       0.80290    0.19732    0.44907   1.00
H1       0.82357    0.20814    0.43638   1.00
C3       0.72167    0.19173    0.47118   1.00
H1       0.68517    0.19845    0.47390   1.00
C4       0.82858    0.17309    0.46373   1.00
C5       0.88950    0.16339    0.46001   1.00
H2       0.93087    0.20538    0.46264   1.00
H2       0.88916    0.15016    0.44616   1.00
H2       0.88686    0.12850    0.46883   1.00
C4       0.74583    0.16746    0.48638   1.00
C5       0.71411    0.15274    0.50795   1.00
H2       0.68035    0.10551    0.50908   1.00
H2       0.69362    0.18028    0.51038   1.00
H2       0.74925    0.16354    0.51782   1.00
C6       0.80071    0.15899    0.48286   1.00
C6       0.82775    0.13407    0.49919   1.00
C4       0.88071    0.17977    0.51144   1.00
C5       0.90501    0.25372    0.50996   1.00
H2       0.94178    0.27424    0.50039   1.00
H2       0.92050    0.27442    0.52294   1.00
H2       0.86807    0.26008    0.50547   1.00
C4       0.79918    0.06396    0.50137   1.00
C5       0.74154    0.01128    0.48811   1.00
H2       0.69829    0.00079    0.49386   1.00
H2       0.74447    -0.02948   0.48742   1.00
H2       0.74534    0.02951    0.47475   1.00
C3       0.90683    0.15471    0.52590   1.00
H1       0.94167    0.18521    0.53438   1.00
C3       0.83040    0.04211    0.51642   1.00
H1       0.81352    -0.00435   0.51810   1.00
C2       0.88270    0.08630    0.52810   1.00
C2       0.54382    0.79393    0.04764   1.00
C3       0.60558    0.80268    0.05093   1.00
H1       0.61543    0.79186    0.06362   1.00
C3       0.52994    0.80827    0.02882   1.00
H1       0.48672    0.80155    0.02610   1.00
C4       0.65549    0.82691    0.03627   1.00
C5       0.72611    0.83661    0.03999   1.00
H2       0.72549    0.79462    0.03736   1.00
H2       0.73900    0.84984    0.05384   1.00
H2       0.75836    0.87150    0.03117   1.00
C4       0.57837    0.83254    0.01362   1.00
C5       0.56137    0.84726    0.99205   1.00
H2       0.57484    0.89449    0.99092   1.00
H2       0.51334    0.81972    0.98962   1.00
H2       0.58571    0.83646    0.98218   1.00
C6       0.64172    0.84101    0.01714   1.00
C6       0.69368    0.86593    0.00081   1.00
C4       0.70094    0.82023    0.98856   1.00
C5       0.65129    0.74628    0.99004   1.00
H2       0.66754    0.72576    0.99961   1.00
H2       0.64608    0.72558    0.97706   1.00
H2       0.60799    0.73992    0.99453   1.00
C4       0.73522    0.93604    0.99863   1.00
C5       0.73026    0.98872    0.01189   1.00
H2       0.69750    0.99921    0.00614   1.00
H2       0.77395    0.02948    0.01258   1.00
H2       0.71583    0.97049    0.02525   1.00
C3       0.75212    0.84529    0.97410   1.00
H1       0.75646    0.81479    0.96562   1.00
C3       0.78829    0.95789    0.98358   1.00
H1       0.81787    0.00435    0.98190   1.00
C2       0.79640    0.91370    0.97190   1.00
C2       0.25011    0.45618    0.04764   1.00
C3       0.19710    0.39442    0.05093   1.00
H1       0.17643    0.38457    0.06362   1.00
C3       0.27833    0.47006    0.02882   1.00
H1       0.31483    0.51328    0.02610   1.00
C4       0.17142    0.34451    0.03627   1.00
C5       0.11050    0.27389    0.03999   1.00
H2       0.06913    0.27451    0.03736   1.00
H2       0.11084    0.26100    0.05384   1.00
H2       0.11314    0.24164    0.03117   1.00
C4       0.25417    0.42163    0.01362   1.00
C5       0.28589    0.43863    0.99205   1.00
H2       0.31965    0.42516    0.99092   1.00
H2       0.30638    0.48666    0.98962   1.00
H2       0.25075    0.41429    0.98218   1.00
C6       0.19929    0.35828    0.01714   1.00
C6       0.17225    0.30632    0.00081   1.00
C4       0.11929    0.29906    0.98856   1.00
C5       0.09499    0.34871    0.99004   1.00
H2       0.05822    0.33246    0.99961   1.00
H2       0.07950    0.35392    0.97706   1.00
H2       0.13193    0.39201    0.99453   1.00
C4       0.20082    0.26478    0.99863   1.00
C5       0.25846    0.26974    0.01189   1.00
H2       0.30171    0.30250    0.00614   1.00
H2       0.25553    0.22605    0.01258   1.00
H2       0.25466    0.28417    0.02525   1.00
C3       0.09317    0.24788    0.97410   1.00
H1       0.05833    0.24354    0.96562   1.00
C3       0.16960    0.21171    0.98358   1.00
H1       0.18648    0.18213    0.98190   1.00
C2       0.11730    0.20360    0.97190   1.00
C2       0.20607    0.74989    0.04764   1.00
C3       0.19732    0.80290    0.05093   1.00
H1       0.20814    0.82357    0.06362   1.00
C3       0.19173    0.72167    0.02882   1.00
H1       0.19845    0.68517    0.02610   1.00
C4       0.17309    0.82858    0.03627   1.00
C5       0.16339    0.88950    0.03999   1.00
H2       0.20538    0.93087    0.03736   1.00
H2       0.15016    0.88916    0.05384   1.00
H2       0.12850    0.88686    0.03117   1.00
C4       0.16746    0.74583    0.01362   1.00
C5       0.15274    0.71411    0.99205   1.00
H2       0.10551    0.68035    0.99092   1.00
H2       0.18028    0.69362    0.98962   1.00
H2       0.16354    0.74925    0.98218   1.00
C6       0.15899    0.80071    0.01714   1.00
C6       0.13407    0.82775    0.00081   1.00
C4       0.17977    0.88071    0.98856   1.00
C5       0.25372    0.90501    0.99004   1.00
H2       0.27424    0.94178    0.99961   1.00
H2       0.27442    0.92050    0.97706   1.00
H2       0.26008    0.86807    0.99453   1.00
C4       0.06396    0.79918    0.99863   1.00
C5       0.01128    0.74154    0.01189   1.00
H2       0.00079    0.69829    0.00614   1.00
H2       -0.02948   0.74447    0.01258   1.00
H2       0.02951    0.74534    0.02525   1.00
C3       0.15471    0.90683    0.97410   1.00
H1       0.18521    0.94167    0.96562   1.00
C3       0.04211    0.83040    0.98358   1.00
H1       -0.00435   0.81352    0.98190   1.00
C2       0.08630    0.88270    0.97190   1.00
C2       0.20607    0.45618    0.54764   1.00
C3       0.19732    0.39442    0.55093   1.00
H1       0.20814    0.38457    0.56362   1.00
C3       0.19173    0.47006    0.52882   1.00
H1       0.19845    0.51328    0.52610   1.00
C4       0.17309    0.34451    0.53627   1.00
C5       0.16339    0.27389    0.53999   1.00
H2       0.20538    0.27451    0.53736   1.00
H2       0.15016    0.26100    0.55384   1.00
H2       0.12850    0.24164    0.53117   1.00
C4       0.16746    0.42163    0.51362   1.00
C5       0.15274    0.43863    0.49205   1.00
H2       0.10551    0.42516    0.49092   1.00
H2       0.18028    0.48666    0.48962   1.00
H2       0.16354    0.41429    0.48218   1.00
C6       0.15899    0.35828    0.51714   1.00
C6       0.13407    0.30632    0.50081   1.00
C4       0.17977    0.29906    0.48856   1.00
C5       0.25372    0.34871    0.49004   1.00
H2       0.27424    0.33246    0.49961   1.00
H2       0.27442    0.35392    0.47706   1.00
H2       0.26008    0.39201    0.49453   1.00
C4       0.06396    0.26478    0.49863   1.00
C5       0.01128    0.26974    0.51189   1.00
H2       0.00079    0.30250    0.50614   1.00
H2       -0.02948   0.22605    0.51258   1.00
H2       0.02951    0.28417    0.52525   1.00
C3       0.15471    0.24788    0.47410   1.00
H1       0.18521    0.24354    0.46562   1.00
C3       0.04211    0.21171    0.48358   1.00
H1       -0.00435   0.18213    0.48190   1.00
C2       0.08630    0.20360    0.47190   1.00
C2       0.54382    0.74989    0.54764   1.00
C3       0.60558    0.80290    0.55093   1.00
H1       0.61543    0.82357    0.56362   1.00
C3       0.52994    0.72167    0.52882   1.00
H1       0.48672    0.68517    0.52610   1.00
C4       0.65549    0.82858    0.53627   1.00
C5       0.72611    0.88950    0.53999   1.00
H2       0.72549    0.93087    0.53736   1.00
H2       0.73900    0.88916    0.55384   1.00
H2       0.75836    0.88686    0.53117   1.00
C4       0.57837    0.74583    0.51362   1.00
C5       0.56137    0.71411    0.49205   1.00
H2       0.57484    0.68035    0.49092   1.00
H2       0.51334    0.69362    0.48962   1.00
H2       0.58571    0.74925    0.48218   1.00
C6       0.64172    0.80071    0.51714   1.00
C6       0.69368    0.82775    0.50081   1.00
C4       0.70094    0.88071    0.48856   1.00
C5       0.65129    0.90501    0.49004   1.00
H2       0.66754    0.94178    0.49961   1.00
H2       0.64608    0.92050    0.47706   1.00
H2       0.60799    0.86807    0.49453   1.00
C4       0.73522    0.79918    0.49863   1.00
C5       0.73026    0.74154    0.51189   1.00
H2       0.69750    0.69829    0.50614   1.00
H2       0.77395    0.74447    0.51258   1.00
H2       0.71583    0.74534    0.52525   1.00
C3       0.75212    0.90683    0.47410   1.00
H1       0.75646    0.94167    0.46562   1.00
C3       0.78829    0.83040    0.48358   1.00
H1       0.81787    0.81352    0.48190   1.00
C2       0.79640    0.88270    0.47190   1.00
C2       0.25011    0.79393    0.54764   1.00
C3       0.19710    0.80268    0.55093   1.00
H1       0.17643    0.79186    0.56362   1.00
C3       0.27833    0.80827    0.52882   1.00
H1       0.31483    0.80155    0.52610   1.00
C4       0.17142    0.82691    0.53627   1.00
C5       0.11050    0.83661    0.53999   1.00
H2       0.06913    0.79462    0.53736   1.00
H2       0.11084    0.84984    0.55384   1.00
H2       0.11314    0.87150    0.53117   1.00
C4       0.25417    0.83254    0.51362   1.00
C5       0.28589    0.84726    0.49205   1.00
H2       0.31965    0.89449    0.49092   1.00
H2       0.30638    0.81972    0.48962   1.00
H2       0.25075    0.83646    0.48218   1.00
C6       0.19929    0.84101    0.51714   1.00
C6       0.17225    0.86593    0.50081   1.00
C4       0.11929    0.82023    0.48856   1.00
C5       0.09499    0.74628    0.49004   1.00
H2       0.05822    0.72576    0.49961   1.00
H2       0.07950    0.72558    0.47706   1.00
H2       0.13193    0.73992    0.49453   1.00
C4       0.20082    0.93604    0.49863   1.00
C5       0.25846    0.98872    0.51189   1.00
H2       0.30171    0.99921    0.50614   1.00
H2       0.25553    0.02948    0.51258   1.00
H2       0.25466    0.97049    0.52525   1.00
C3       0.09317    0.84529    0.47410   1.00
H1       0.05833    0.81479    0.46562   1.00
C3       0.16960    0.95789    0.48358   1.00
H1       0.18648    0.00435    0.48190   1.00
C2       0.11730    0.91370    0.47190   1.00
C2       0.45618    0.20607    0.95236   1.00
C3       0.39442    0.19732    0.94907   1.00
H1       0.38457    0.20814    0.93638   1.00
C3       0.47006    0.19173    0.97118   1.00
H1       0.51328    0.19845    0.97390   1.00
C4       0.34451    0.17309    0.96373   1.00
C5       0.27389    0.16339    0.96001   1.00
H2       0.27451    0.20538    0.96264   1.00
H2       0.26100    0.15016    0.94616   1.00
H2       0.24164    0.12850    0.96883   1.00
C4       0.42163    0.16746    0.98638   1.00
C5       0.43863    0.15274    0.00795   1.00
H2       0.42516    0.10551    0.00908   1.00
H2       0.48666    0.18028    0.01038   1.00
H2       0.41429    0.16354    0.01782   1.00
C6       0.35828    0.15899    0.98286   1.00
C6       0.30632    0.13407    0.99919   1.00
C4       0.29906    0.17977    0.01144   1.00
C5       0.34871    0.25372    0.00996   1.00
H2       0.33246    0.27424    0.00039   1.00
H2       0.35392    0.27442    0.02294   1.00
H2       0.39201    0.26008    0.00547   1.00
C4       0.26478    0.06396    0.00137   1.00
C5       0.26974    0.01128    0.98811   1.00
H2       0.30250    0.00079    0.99386   1.00
H2       0.22605    -0.02948   0.98742   1.00
H2       0.28417    0.02951    0.97475   1.00
C3       0.24788    0.15471    0.02590   1.00
H1       0.24354    0.18521    0.03438   1.00
C3       0.21171    0.04211    0.01642   1.00
H1       0.18213    -0.00435   0.01810   1.00
C2       0.20360    0.08630    0.02810   1.00
C2       0.74989    0.54382    0.95236   1.00
C3       0.80290    0.60558    0.94907   1.00
H1       0.82357    0.61543    0.93638   1.00
C3       0.72167    0.52994    0.97118   1.00
H1       0.68517    0.48672    0.97390   1.00
C4       0.82858    0.65549    0.96373   1.00
C5       0.88950    0.72611    0.96001   1.00
H2       0.93087    0.72549    0.96264   1.00
H2       0.88916    0.73900    0.94616   1.00
H2       0.88686    0.75836    0.96883   1.00
C4       0.74583    0.57837    0.98638   1.00
C5       0.71411    0.56137    0.00795   1.00
H2       0.68035    0.57484    0.00908   1.00
H2       0.69362    0.51334    0.01038   1.00
H2       0.74925    0.58571    0.01782   1.00
C6       0.80071    0.64172    0.98286   1.00
C6       0.82775    0.69368    0.99919   1.00
C4       0.88071    0.70094    0.01144   1.00
C5       0.90501    0.65129    0.00996   1.00
H2       0.94178    0.66754    0.00039   1.00
H2       0.92050    0.64608    0.02294   1.00
H2       0.86807    0.60799    0.00547   1.00
C4       0.79918    0.73522    0.00137   1.00
C5       0.74154    0.73026    0.98811   1.00
H2       0.69829    0.69750    0.99386   1.00
H2       0.74447    0.77395    0.98742   1.00
H2       0.74534    0.71583    0.97475   1.00
C3       0.90683    0.75212    0.02590   1.00
H1       0.94167    0.75646    0.03438   1.00
C3       0.83040    0.78829    0.01642   1.00
H1       0.81352    0.81787    0.01810   1.00
C2       0.88270    0.79640    0.02810   1.00
C2       0.79393    0.25011    0.95236   1.00
C3       0.80268    0.19710    0.94907   1.00
H1       0.79186    0.17643    0.93638   1.00
C3       0.80827    0.27833    0.97118   1.00
H1       0.80155    0.31483    0.97390   1.00
C4       0.82691    0.17142    0.96373   1.00
C5       0.83661    0.11050    0.96001   1.00
H2       0.79462    0.06913    0.96264   1.00
H2       0.84984    0.11084    0.94616   1.00
H2       0.87150    0.11314    0.96883   1.00
C4       0.83254    0.25417    0.98638   1.00
C5       0.84726    0.28589    0.00795   1.00
H2       0.89449    0.31965    0.00908   1.00
H2       0.81972    0.30638    0.01038   1.00
H2       0.83646    0.25075    0.01782   1.00
C6       0.84101    0.19929    0.98286   1.00
C6       0.86593    0.17225    0.99919   1.00
C4       0.82023    0.11929    0.01144   1.00
C5       0.74628    0.09499    0.00996   1.00
H2       0.72576    0.05822    0.00039   1.00
H2       0.72558    0.07950    0.02294   1.00
H2       0.73992    0.13193    0.00547   1.00
C4       0.93604    0.20082    0.00137   1.00
C5       0.98872    0.25846    0.98811   1.00
H2       0.99921    0.30171    0.99386   1.00
H2       0.02948    0.25553    0.98742   1.00
H2       0.97049    0.25466    0.97475   1.00
C3       0.84529    0.09317    0.02590   1.00
H1       0.81479    0.05833    0.03438   1.00
C3       0.95789    0.16960    0.01642   1.00
H1       0.00435    0.18648    0.01810   1.00
C2       0.91370    0.11730    0.02810   1.00
C2       0.46060    0.87715    0.78569   1.00
C3       0.46935    0.93891    0.78240   1.00
H1       0.45853    0.94876    0.76971   1.00
C3       0.47494    0.86327    0.80451   1.00
H1       0.46822    0.82005    0.80723   1.00
C4       0.49358    0.98882    0.79706   1.00
C5       0.50328    0.05944    0.79334   1.00
H2       0.46129    0.05882    0.79597   1.00
H2       0.51651    0.07233    0.77949   1.00
H2       0.53817    0.09169    0.80216   1.00
C4       0.49921    0.91170    0.81971   1.00
C5       0.51393    0.89470    0.84128   1.00
H2       0.56116    0.90817    0.84241   1.00
H2       0.48639    0.84667    0.84371   1.00
H2       0.50313    0.91904    0.85115   1.00
C6       0.50768    0.97505    0.81619   1.00
C6       0.53260    0.02701    0.83252   1.00
C4       0.48690    0.03427    0.84477   1.00
C5       0.41295    0.98462    0.84329   1.00
H2       0.39243    0.00087    0.83372   1.00
H2       0.39225    0.97941    0.85627   1.00
H2       0.40659    0.94132    0.83880   1.00
C4       0.60271    0.06855    0.83470   1.00
C5       0.65539    0.06359    0.82144   1.00
H2       0.66588    0.03083    0.82719   1.00
H2       0.69615    0.10728    0.82075   1.00
H2       0.63716    0.04916    0.80808   1.00
C3       0.51196    0.08545    0.85923   1.00
H1       0.48146    0.08979    0.86771   1.00
C3       0.62456    0.12162    0.84975   1.00
H1       0.67102    0.15120    0.85143   1.00
C2       0.58037    0.12973    0.86143   1.00
C2       0.12285    0.58344    0.78569   1.00
C3       0.06109    0.53043    0.78240   1.00
H1       0.05124    0.50976    0.76971   1.00
C3       0.13673    0.61166    0.80451   1.00
H1       0.17995    0.64816    0.80723   1.00
C4       0.01118    0.50475    0.79706   1.00
C5       0.94056    0.44383    0.79334   1.00
H2       0.94118    0.40246    0.79597   1.00
H2       0.92767    0.44417    0.77949   1.00
H2       0.90831    0.44647    0.80216   1.00
C4       0.08830    0.58750    0.81971   1.00
C5       0.10530    0.61922    0.84128   1.00
H2       0.09183    0.65298    0.84241   1.00
H2       0.15333    0.63971    0.84371   1.00
H2       0.08096    0.58408    0.85115   1.00
C6       0.02495    0.53262    0.81619   1.00
C6       0.97299    0.50558    0.83252   1.00
C4       0.96573    0.45262    0.84477   1.00
C5       0.01538    0.42832    0.84329   1.00
H2       0.99913    0.39155    0.83372   1.00
H2       0.02059    0.41283    0.85627   1.00
H2       0.05868    0.46526    0.83880   1.00
C4       0.93145    0.53415    0.83470   1.00
C5       0.93641    0.59179    0.82144   1.00
H2       0.96917    0.63504    0.82719   1.00
H2       0.89272    0.58886    0.82075   1.00
H2       0.95084    0.58799    0.80808   1.00
C3       0.91455    0.42650    0.85923   1.00
H1       0.91021    0.39166    0.86771   1.00
C3       0.87838    0.50293    0.84975   1.00
H1       0.84880    0.51981    0.85143   1.00
C2       0.87027    0.45063    0.86143   1.00
C2       0.41656    0.53940    0.78569   1.00
C3       0.46957    0.53065    0.78240   1.00
H1       0.49024    0.54147    0.76971   1.00
C3       0.38834    0.52506    0.80451   1.00
H1       0.35184    0.53178    0.80723   1.00
C4       0.49525    0.50642    0.79706   1.00
C5       0.55617    0.49672    0.79334   1.00
H2       0.59754    0.53871    0.79597   1.00
H2       0.55583    0.48349    0.77949   1.00
H2       0.55353    0.46183    0.80216   1.00
C4       0.41250    0.50079    0.81971   1.00
C5       0.38078    0.48607    0.84128   1.00
H2       0.34702    0.43884    0.84241   1.00
H2       0.36029    0.51361    0.84371   1.00
H2       0.41592    0.49687    0.85115   1.00
C6       0.46738    0.49232    0.81619   1.00
C6       0.49442    0.46740    0.83252   1.00
C4       0.54738    0.51310    0.84477   1.00
C5       0.57168    0.58705    0.84329   1.00
H2       0.60845    0.60757    0.83372   1.00
H2       0.58717    0.60775    0.85627   1.00
H2       0.53474    0.59341    0.83880   1.00
C4       0.46585    0.39729    0.83470   1.00
C5       0.40821    0.34461    0.82144   1.00
H2       0.36496    0.33412    0.82719   1.00
H2       0.41114    0.30385    0.82075   1.00
H2       0.41201    0.36284    0.80808   1.00
C3       0.57350    0.48804    0.85923   1.00
H1       0.60834    0.51854    0.86771   1.00
C3       0.49707    0.37544    0.84975   1.00
H1       0.48019    0.32898    0.85143   1.00
C2       0.54937    0.41963    0.86143   1.00
C2       0.21049    0.12726    0.38097   1.00
C3       0.27225    0.13601    0.38426   1.00
H1       0.28210    0.12519    0.39695   1.00
C3       0.19661    0.14160    0.36215   1.00
H1       0.15339    0.13488    0.35943   1.00
C4       0.32216    0.16024    0.36960   1.00
C5       0.39278    0.16994    0.37332   1.00
H2       0.39216    0.12795    0.37069   1.00
H2       0.40567    0.18317    0.38717   1.00
H2       0.42503    0.20483    0.36450   1.00
C4       0.24504    0.16587    0.34695   1.00
C5       0.22804    0.18059    0.32538   1.00
H2       0.24151    0.22782    0.32425   1.00
H2       0.18001    0.15305    0.32295   1.00
H2       0.25238    0.16979    0.31551   1.00
C6       0.30839    0.17434    0.35047   1.00
C6       0.36035    0.19926    0.33414   1.00
C4       0.36761    0.15356    0.32189   1.00
C5       0.31796    0.07961    0.32337   1.00
H2       0.33421    0.05909    0.33294   1.00
H2       0.31275    0.05891    0.31039   1.00
H2       0.27466    0.07325    0.32786   1.00
C4       0.40189    0.26937    0.33196   1.00
C5       0.39693    0.32205    0.34522   1.00
H2       0.36417    0.33254    0.33947   1.00
H2       0.44062    0.36281    0.34591   1.00
H2       0.38250    0.30382    0.35858   1.00
C3       0.41879    0.17862    0.30743   1.00
H1       0.42313    0.14812    0.29895   1.00
C3       0.45496    0.29122    0.31691   1.00
H1       0.48454    0.33768    0.31523   1.00
C2       0.46307    0.24703    0.30523   1.00
C2       0.91678    0.78951    0.38097   1.00
C3       0.86377    0.72775    0.38426   1.00
H1       0.84310    0.71790    0.39695   1.00
C3       0.94500    0.80339    0.36215   1.00
H1       0.98150    0.84661    0.35943   1.00
C4       0.83809    0.67784    0.36960   1.00
C5       0.77717    0.60722    0.37332   1.00
H2       0.73580    0.60784    0.37069   1.00
H2       0.77751    0.59433    0.38717   1.00
H2       0.77981    0.57497    0.36450   1.00
C4       0.92084    0.75496    0.34695   1.00
C5       0.95256    0.77196    0.32538   1.00
H2       0.98632    0.75849    0.32425   1.00
H2       0.97305    0.81999    0.32295   1.00
H2       0.91742    0.74762    0.31551   1.00
C6       0.86596    0.69161    0.35047   1.00
C6       0.83892    0.63965    0.33414   1.00
C4       0.78596    0.63239    0.32189   1.00
C5       0.76166    0.68204    0.32337   1.00
H2       0.72489    0.66579    0.33294   1.00
H2       0.74617    0.68725    0.31039   1.00
H2       0.79860    0.72534    0.32786   1.00
C4       0.86749    0.59811    0.33196   1.00
C5       0.92513    0.60307    0.34522   1.00
H2       0.96838    0.63583    0.33947   1.00
H2       0.92220    0.55938    0.34591   1.00
H2       0.92133    0.61750    0.35858   1.00
C3       0.75984    0.58121    0.30743   1.00
H1       0.72500    0.57687    0.29895   1.00
C3       0.83627    0.54504    0.31691   1.00
H1       0.85315    0.51546    0.31523   1.00
C2       0.78397    0.53693    0.30523   1.00
C2       0.87274    0.08322    0.38097   1.00
C3       0.86399    0.13623    0.38426   1.00
H1       0.87481    0.15690    0.39695   1.00
C3       0.85840    0.05500    0.36215   1.00
H1       0.86512    0.01850    0.35943   1.00
C4       0.83976    0.16191    0.36960   1.00
C5       0.83006    0.22283    0.37332   1.00
H2       0.87205    0.26420    0.37069   1.00
H2       0.81683    0.22249    0.38717   1.00
H2       0.79517    0.22019    0.36450   1.00
C4       0.83413    0.07916    0.34695   1.00
C5       0.81941    0.04744    0.32538   1.00
H2       0.77218    0.01368    0.32425   1.00
H2       0.84695    0.02695    0.32295   1.00
H2       0.83021    0.08258    0.31551   1.00
C6       0.82566    0.13404    0.35047   1.00
C6       0.80074    0.16108    0.33414   1.00
C4       0.84644    0.21404    0.32189   1.00
C5       0.92039    0.23834    0.32337   1.00
H2       0.94091    0.27511    0.33294   1.00
H2       0.94109    0.25383    0.31039   1.00
H2       0.92675    0.20140    0.32786   1.00
C4       0.73063    0.13251    0.33196   1.00
C5       0.67795    0.07487    0.34522   1.00
H2       0.66746    0.03162    0.33947   1.00
H2       0.63719    0.07780    0.34591   1.00
H2       0.69618    0.07867    0.35858   1.00
C3       0.82138    0.24016    0.30743   1.00
H1       0.85188    0.27500    0.29895   1.00
C3       0.70878    0.16373    0.31691   1.00
H1       0.66232    0.14685    0.31523   1.00
C2       0.75297    0.21603    0.30523   1.00
C2       0.87274    0.78951    0.88097   1.00
C3       0.86399    0.72775    0.88426   1.00
H1       0.87481    0.71790    0.89695   1.00
C3       0.85840    0.80339    0.86215   1.00
H1       0.86512    0.84661    0.85943   1.00
C4       0.83976    0.67784    0.86960   1.00
C5       0.83006    0.60722    0.87332   1.00
H2       0.87205    0.60784    0.87069   1.00
H2       0.81683    0.59433    0.88717   1.00
H2       0.79517    0.57497    0.86450   1.00
C4       0.83413    0.75496    0.84695   1.00
C5       0.81941    0.77196    0.82538   1.00
H2       0.77218    0.75849    0.82425   1.00
H2       0.84695    0.81999    0.82295   1.00
H2       0.83021    0.74762    0.81551   1.00
C6       0.82566    0.69161    0.85047   1.00
C6       0.80074    0.63965    0.83414   1.00
C4       0.84644    0.63239    0.82189   1.00
C5       0.92039    0.68204    0.82337   1.00
H2       0.94091    0.66579    0.83294   1.00
H2       0.94109    0.68725    0.81039   1.00
H2       0.92675    0.72534    0.82786   1.00
C4       0.73063    0.59811    0.83196   1.00
C5       0.67795    0.60307    0.84522   1.00
H2       0.66746    0.63583    0.83947   1.00
H2       0.63719    0.55938    0.84591   1.00
H2       0.69618    0.61750    0.85858   1.00
C3       0.82138    0.58121    0.80743   1.00
H1       0.85188    0.57687    0.79895   1.00
C3       0.70878    0.54504    0.81691   1.00
H1       0.66232    0.51546    0.81523   1.00
C2       0.75297    0.53693    0.80523   1.00
C2       0.21049    0.08322    0.88097   1.00
C3       0.27225    0.13623    0.88426   1.00
H1       0.28210    0.15690    0.89695   1.00
C3       0.19661    0.05500    0.86215   1.00
H1       0.15339    0.01850    0.85943   1.00
C4       0.32216    0.16191    0.86960   1.00
C5       0.39278    0.22283    0.87332   1.00
H2       0.39216    0.26420    0.87069   1.00
H2       0.40567    0.22249    0.88717   1.00
H2       0.42503    0.22019    0.86450   1.00
C4       0.24504    0.07916    0.84695   1.00
C5       0.22804    0.04744    0.82538   1.00
H2       0.24151    0.01368    0.82425   1.00
H2       0.18001    0.02695    0.82295   1.00
H2       0.25238    0.08258    0.81551   1.00
C6       0.30839    0.13404    0.85047   1.00
C6       0.36035    0.16108    0.83414   1.00
C4       0.36761    0.21404    0.82189   1.00
C5       0.31796    0.23834    0.82337   1.00
H2       0.33421    0.27511    0.83294   1.00
H2       0.31275    0.25383    0.81039   1.00
H2       0.27466    0.20140    0.82786   1.00
C4       0.40189    0.13251    0.83196   1.00
C5       0.39693    0.07487    0.84522   1.00
H2       0.36417    0.03162    0.83947   1.00
H2       0.44062    0.07780    0.84591   1.00
H2       0.38250    0.07867    0.85858   1.00
C3       0.41879    0.24016    0.80743   1.00
H1       0.42313    0.27500    0.79895   1.00
C3       0.45496    0.16373    0.81691   1.00
H1       0.48454    0.14685    0.81523   1.00
C2       0.46307    0.21603    0.80523   1.00
C2       0.91678    0.12726    0.88097   1.00
C3       0.86377    0.13601    0.88426   1.00
H1       0.84310    0.12519    0.89695   1.00
C3       0.94500    0.14160    0.86215   1.00
H1       0.98150    0.13488    0.85943   1.00
C4       0.83809    0.16024    0.86960   1.00
C5       0.77717    0.16994    0.87332   1.00
H2       0.73580    0.12795    0.87069   1.00
H2       0.77751    0.18317    0.88717   1.00
H2       0.77981    0.20483    0.86450   1.00
C4       0.92084    0.16587    0.84695   1.00
C5       0.95256    0.18059    0.82538   1.00
H2       0.98632    0.22782    0.82425   1.00
H2       0.97305    0.15305    0.82295   1.00
H2       0.91742    0.16979    0.81551   1.00
C6       0.86596    0.17434    0.85047   1.00
C6       0.83892    0.19926    0.83414   1.00
C4       0.78596    0.15356    0.82189   1.00
C5       0.76166    0.07961    0.82337   1.00
H2       0.72489    0.05909    0.83294   1.00
H2       0.74617    0.05891    0.81039   1.00
H2       0.79860    0.07325    0.82786   1.00
C4       0.86749    0.26937    0.83196   1.00
C5       0.92513    0.32205    0.84522   1.00
H2       0.96838    0.33254    0.83947   1.00
H2       0.92220    0.36281    0.84591   1.00
H2       0.92133    0.30382    0.85858   1.00
C3       0.75984    0.17862    0.80743   1.00
H1       0.72500    0.14812    0.79895   1.00
C3       0.83627    0.29122    0.81691   1.00
H1       0.85315    0.33768    0.81523   1.00
C2       0.78397    0.24703    0.80523   1.00
C2       0.12285    0.53940    0.28569   1.00
C3       0.06109    0.53065    0.28240   1.00
H1       0.05124    0.54147    0.26971   1.00
C3       0.13673    0.52506    0.30451   1.00
H1       0.17995    0.53178    0.30723   1.00
C4       0.01118    0.50642    0.29706   1.00
C5       0.94056    0.49672    0.29334   1.00
H2       0.94118    0.53871    0.29597   1.00
H2       0.92767    0.48349    0.27949   1.00
H2       0.90831    0.46183    0.30216   1.00
C4       0.08830    0.50079    0.31971   1.00
C5       0.10530    0.48607    0.34128   1.00
H2       0.09183    0.43884    0.34241   1.00
H2       0.15333    0.51361    0.34371   1.00
H2       0.08096    0.49687    0.35115   1.00
C6       0.02495    0.49232    0.31619   1.00
C6       0.97299    0.46740    0.33252   1.00
C4       0.96573    0.51310    0.34477   1.00
C5       0.01538    0.58705    0.34329   1.00
H2       0.99913    0.60757    0.33372   1.00
H2       0.02059    0.60775    0.35627   1.00
H2       0.05868    0.59341    0.33880   1.00
C4       0.93145    0.39729    0.33470   1.00
C5       0.93641    0.34461    0.32144   1.00
H2       0.96917    0.33412    0.32719   1.00
H2       0.89272    0.30385    0.32075   1.00
H2       0.95084    0.36284    0.30808   1.00
C3       0.91455    0.48804    0.35923   1.00
H1       0.91021    0.51854    0.36771   1.00
C3       0.87838    0.37544    0.34975   1.00
H1       0.84880    0.32898    0.35143   1.00
C2       0.87027    0.41963    0.36143   1.00
C2       0.41656    0.87715    0.28569   1.00
C3       0.46957    0.93891    0.28240   1.00
H1       0.49024    0.94876    0.26971   1.00
C3       0.38834    0.86327    0.30451   1.00
H1       0.35184    0.82005    0.30723   1.00
C4       0.49525    0.98882    0.29706   1.00
C5       0.55617    0.05944    0.29334   1.00
H2       0.59754    0.05882    0.29597   1.00
H2       0.55583    0.07233    0.27949   1.00
H2       0.55353    0.09169    0.30216   1.00
C4       0.41250    0.91170    0.31971   1.00
C5       0.38078    0.89470    0.34128   1.00
H2       0.34702    0.90817    0.34241   1.00
H2       0.36029    0.84667    0.34371   1.00
H2       0.41592    0.91904    0.35115   1.00
C6       0.46738    0.97505    0.31619   1.00
C6       0.49442    0.02701    0.33252   1.00
C4       0.54738    0.03427    0.34477   1.00
C5       0.57168    0.98462    0.34329   1.00
H2       0.60845    0.00087    0.33372   1.00
H2       0.58717    0.97941    0.35627   1.00
H2       0.53474    0.94132    0.33880   1.00
C4       0.46585    0.06855    0.33470   1.00
C5       0.40821    0.06359    0.32144   1.00
H2       0.36496    0.03083    0.32719   1.00
H2       0.41114    0.10728    0.32075   1.00
H2       0.41201    0.04916    0.30808   1.00
C3       0.57350    0.08545    0.35923   1.00
H1       0.60834    0.08979    0.36771   1.00
C3       0.49707    0.12162    0.34975   1.00
H1       0.48019    0.15120    0.35143   1.00
C2       0.54937    0.12973    0.36143   1.00
C2       0.46060    0.58344    0.28569   1.00
C3       0.46935    0.53043    0.28240   1.00
H1       0.45853    0.50976    0.26971   1.00
C3       0.47494    0.61166    0.30451   1.00
H1       0.46822    0.64816    0.30723   1.00
C4       0.49358    0.50475    0.29706   1.00
C5       0.50328    0.44383    0.29334   1.00
H2       0.46129    0.40246    0.29597   1.00
H2       0.51651    0.44417    0.27949   1.00
H2       0.53817    0.44647    0.30216   1.00
C4       0.49921    0.58750    0.31971   1.00
C5       0.51393    0.61922    0.34128   1.00
H2       0.56116    0.65298    0.34241   1.00
H2       0.48639    0.63971    0.34371   1.00
H2       0.50313    0.58408    0.35115   1.00
C6       0.50768    0.53262    0.31619   1.00
C6       0.53260    0.50558    0.33252   1.00
C4       0.48690    0.45262    0.34477   1.00
C5       0.41295    0.42832    0.34329   1.00
H2       0.39243    0.39155    0.33372   1.00
H2       0.39225    0.41283    0.35627   1.00
H2       0.40659    0.46526    0.33880   1.00
C4       0.60271    0.53415    0.33470   1.00
C5       0.65539    0.59179    0.32144   1.00
H2       0.66588    0.63504    0.32719   1.00
H2       0.69615    0.58886    0.32075   1.00
H2       0.63716    0.58799    0.30808   1.00
C3       0.51196    0.42650    0.35923   1.00
H1       0.48146    0.39166    0.36771   1.00
C3       0.62456    0.50293    0.34975   1.00
H1       0.67102    0.51981    0.35143   1.00
C2       0.58037    0.45063    0.36143   1.00
C2       0.12726    0.21049    0.11903   1.00
C3       0.13601    0.27225    0.11574   1.00
H1       0.12519    0.28210    0.10305   1.00
C3       0.14160    0.19661    0.13785   1.00
H1       0.13488    0.15339    0.14057   1.00
C4       0.16024    0.32216    0.13040   1.00
C5       0.16994    0.39278    0.12668   1.00
H2       0.12795    0.39216    0.12931   1.00
H2       0.18317    0.40567    0.11283   1.00
H2       0.20483    0.42503    0.13550   1.00
C4       0.16587    0.24504    0.15305   1.00
C5       0.18059    0.22804    0.17462   1.00
H2       0.22782    0.24151    0.17575   1.00
H2       0.15305    0.18001    0.17705   1.00
H2       0.16979    0.25238    0.18449   1.00
C6       0.17434    0.30839    0.14953   1.00
C6       0.19926    0.36035    0.16586   1.00
C4       0.15356    0.36761    0.17811   1.00
C5       0.07961    0.31796    0.17663   1.00
H2       0.05909    0.33421    0.16706   1.00
H2       0.05891    0.31275    0.18961   1.00
H2       0.07325    0.27466    0.17214   1.00
C4       0.26937    0.40189    0.16804   1.00
C5       0.32205    0.39693    0.15478   1.00
H2       0.33254    0.36417    0.16053   1.00
H2       0.36281    0.44062    0.15409   1.00
H2       0.30382    0.38250    0.14142   1.00
C3       0.17862    0.41879    0.19257   1.00
H1       0.14812    0.42313    0.20105   1.00
C3       0.29122    0.45496    0.18309   1.00
H1       0.33768    0.48454    0.18477   1.00
C2       0.24703    0.46307    0.19477   1.00
C2       0.78951    0.91678    0.11903   1.00
C3       0.72775    0.86377    0.11574   1.00
H1       0.71790    0.84310    0.10305   1.00
C3       0.80339    0.94500    0.13785   1.00
H1       0.84661    0.98150    0.14057   1.00
C4       0.67784    0.83809    0.13040   1.00
C5       0.60722    0.77717    0.12668   1.00
H2       0.60784    0.73580    0.12931   1.00
H2       0.59433    0.77751    0.11283   1.00
H2       0.57497    0.77981    0.13550   1.00
C4       0.75496    0.92084    0.15305   1.00
C5       0.77196    0.95256    0.17462   1.00
H2       0.75849    0.98632    0.17575   1.00
H2       0.81999    0.97305    0.17705   1.00
H2       0.74762    0.91742    0.18449   1.00
C6       0.69161    0.86596    0.14953   1.00
C6       0.63965    0.83892    0.16586   1.00
C4       0.63239    0.78596    0.17811   1.00
C5       0.68204    0.76166    0.17663   1.00
H2       0.66579    0.72489    0.16706   1.00
H2       0.68725    0.74617    0.18961   1.00
H2       0.72534    0.79860    0.17214   1.00
C4       0.59811    0.86749    0.16804   1.00
C5       0.60307    0.92513    0.15478   1.00
H2       0.63583    0.96838    0.16053   1.00
H2       0.55938    0.92220    0.15409   1.00
H2       0.61750    0.92133    0.14142   1.00
C3       0.58121    0.75984    0.19257   1.00
H1       0.57687    0.72500    0.20105   1.00
C3       0.54504    0.83627    0.18309   1.00
H1       0.51546    0.85315    0.18477   1.00
C2       0.53693    0.78397    0.19477   1.00
C2       0.08322    0.87274    0.11903   1.00
C3       0.13623    0.86399    0.11574   1.00
H1       0.15690    0.87481    0.10305   1.00
C3       0.05500    0.85840    0.13785   1.00
H1       0.01850    0.86512    0.14057   1.00
C4       0.16191    0.83976    0.13040   1.00
C5       0.22283    0.83006    0.12668   1.00
H2       0.26420    0.87205    0.12931   1.00
H2       0.22249    0.81683    0.11283   1.00
H2       0.22019    0.79517    0.13550   1.00
C4       0.07916    0.83413    0.15305   1.00
C5       0.04744    0.81941    0.17462   1.00
H2       0.01368    0.77218    0.17575   1.00
H2       0.02695    0.84695    0.17705   1.00
H2       0.08258    0.83021    0.18449   1.00
C6       0.13404    0.82566    0.14953   1.00
C6       0.16108    0.80074    0.16586   1.00
C4       0.21404    0.84644    0.17811   1.00
C5       0.23834    0.92039    0.17663   1.00
H2       0.27511    0.94091    0.16706   1.00
H2       0.25383    0.94109    0.18961   1.00
H2       0.20140    0.92675    0.17214   1.00
C4       0.13251    0.73063    0.16804   1.00
C5       0.07487    0.67795    0.15478   1.00
H2       0.03162    0.66746    0.16053   1.00
H2       0.07780    0.63719    0.15409   1.00
H2       0.07867    0.69618    0.14142   1.00
C3       0.24016    0.82138    0.19257   1.00
H1       0.27500    0.85188    0.20105   1.00
C3       0.16373    0.70878    0.18309   1.00
H1       0.14685    0.66232    0.18477   1.00
C2       0.21603    0.75297    0.19477   1.00
C2       0.87715    0.46060    0.71431   1.00
C3       0.93891    0.46935    0.71760   1.00
H1       0.94876    0.45853    0.73029   1.00
C3       0.86327    0.47494    0.69549   1.00
H1       0.82005    0.46822    0.69277   1.00
C4       0.98882    0.49358    0.70294   1.00
C5       0.05944    0.50328    0.70666   1.00
H2       0.05882    0.46129    0.70403   1.00
H2       0.07233    0.51651    0.72051   1.00
H2       0.09169    0.53817    0.69784   1.00
C4       0.91170    0.49921    0.68029   1.00
C5       0.89470    0.51393    0.65872   1.00
H2       0.90817    0.56116    0.65759   1.00
H2       0.84667    0.48639    0.65629   1.00
H2       0.91904    0.50313    0.64885   1.00
C6       0.97505    0.50768    0.68381   1.00
C6       0.02701    0.53260    0.66748   1.00
C4       0.03427    0.48690    0.65523   1.00
C5       0.98462    0.41295    0.65671   1.00
H2       0.00087    0.39243    0.66628   1.00
H2       0.97941    0.39225    0.64373   1.00
H2       0.94132    0.40659    0.66120   1.00
C4       0.06855    0.60271    0.66530   1.00
C5       0.06359    0.65539    0.67856   1.00
H2       0.03083    0.66588    0.67281   1.00
H2       0.10728    0.69615    0.67925   1.00
H2       0.04916    0.63716    0.69192   1.00
C3       0.08545    0.51196    0.64077   1.00
H1       0.08979    0.48146    0.63229   1.00
C3       0.12162    0.62456    0.65025   1.00
H1       0.15120    0.67102    0.64857   1.00
C2       0.12973    0.58037    0.63857   1.00
C2       0.58344    0.12285    0.71431   1.00
C3       0.53043    0.06109    0.71760   1.00
H1       0.50976    0.05124    0.73029   1.00
C3       0.61166    0.13673    0.69549   1.00
H1       0.64816    0.17995    0.69277   1.00
C4       0.50475    0.01118    0.70294   1.00
C5       0.44383    0.94056    0.70666   1.00
H2       0.40246    0.94118    0.70403   1.00
H2       0.44417    0.92767    0.72051   1.00
H2       0.44647    0.90831    0.69784   1.00
C4       0.58750    0.08830    0.68029   1.00
C5       0.61922    0.10530    0.65872   1.00
H2       0.65298    0.09183    0.65759   1.00
H2       0.63971    0.15333    0.65629   1.00
H2       0.58408    0.08096    0.64885   1.00
C6       0.53262    0.02495    0.68381   1.00
C6       0.50558    0.97299    0.66748   1.00
C4       0.45262    0.96573    0.65523   1.00
C5       0.42832    0.01538    0.65671   1.00
H2       0.39155    0.99913    0.66628   1.00
H2       0.41283    0.02059    0.64373   1.00
H2       0.46526    0.05868    0.66120   1.00
C4       0.53415    0.93145    0.66530   1.00
C5       0.59179    0.93641    0.67856   1.00
H2       0.63504    0.96917    0.67281   1.00
H2       0.58886    0.89272    0.67925   1.00
H2       0.58799    0.95084    0.69192   1.00
C3       0.42650    0.91455    0.64077   1.00
H1       0.39166    0.91021    0.63229   1.00
C3       0.50293    0.87838    0.65025   1.00
H1       0.51981    0.84880    0.64857   1.00
C2       0.45063    0.87027    0.63857   1.00
C2       0.53940    0.41656    0.71431   1.00
C3       0.53065    0.46957    0.71760   1.00
H1       0.54147    0.49024    0.73029   1.00
C3       0.52506    0.38834    0.69549   1.00
H1       0.53178    0.35184    0.69277   1.00
C4       0.50642    0.49525    0.70294   1.00
C5       0.49672    0.55617    0.70666   1.00
H2       0.53871    0.59754    0.70403   1.00
H2       0.48349    0.55583    0.72051   1.00
H2       0.46183    0.55353    0.69784   1.00
C4       0.50079    0.41250    0.68029   1.00
C5       0.48607    0.38078    0.65872   1.00
H2       0.43884    0.34702    0.65759   1.00
H2       0.51361    0.36029    0.65629   1.00
H2       0.49687    0.41592    0.64885   1.00
C6       0.49232    0.46738    0.68381   1.00
C6       0.46740    0.49442    0.66748   1.00
C4       0.51310    0.54738    0.65523   1.00
C5       0.58705    0.57168    0.65671   1.00
H2       0.60757    0.60845    0.66628   1.00
H2       0.60775    0.58717    0.64373   1.00
H2       0.59341    0.53474    0.66120   1.00
C4       0.39729    0.46585    0.66530   1.00
C5       0.34461    0.40821    0.67856   1.00
H2       0.33412    0.36496    0.67281   1.00
H2       0.30385    0.41114    0.67925   1.00
H2       0.36284    0.41201    0.69192   1.00
C3       0.48804    0.57350    0.64077   1.00
H1       0.51854    0.60834    0.63229   1.00
C3       0.37544    0.49707    0.65025   1.00
H1       0.32898    0.48019    0.64857   1.00
C2       0.41963    0.54937    0.63857   1.00
C2       0.53940    0.12285    0.21431   1.00
C3       0.53065    0.06109    0.21760   1.00
H1       0.54147    0.05124    0.23029   1.00
C3       0.52506    0.13673    0.19549   1.00
H1       0.53178    0.17995    0.19277   1.00
C4       0.50642    0.01118    0.20294   1.00
C5       0.49672    0.94056    0.20666   1.00
H2       0.53871    0.94118    0.20403   1.00
H2       0.48349    0.92767    0.22051   1.00
H2       0.46183    0.90831    0.19784   1.00
C4       0.50079    0.08830    0.18029   1.00
C5       0.48607    0.10530    0.15872   1.00
H2       0.43884    0.09183    0.15759   1.00
H2       0.51361    0.15333    0.15629   1.00
H2       0.49687    0.08096    0.14885   1.00
C6       0.49232    0.02495    0.18381   1.00
C6       0.46740    0.97299    0.16748   1.00
C4       0.51310    0.96573    0.15523   1.00
C5       0.58705    0.01538    0.15671   1.00
H2       0.60757    0.99913    0.16628   1.00
H2       0.60775    0.02059    0.14373   1.00
H2       0.59341    0.05868    0.16120   1.00
C4       0.39729    0.93145    0.16530   1.00
C5       0.34461    0.93641    0.17856   1.00
H2       0.33412    0.96917    0.17281   1.00
H2       0.30385    0.89272    0.17925   1.00
H2       0.36284    0.95084    0.19192   1.00
C3       0.48804    0.91455    0.14077   1.00
H1       0.51854    0.91021    0.13229   1.00
C3       0.37544    0.87838    0.15025   1.00
H1       0.32898    0.84880    0.14857   1.00
C2       0.41963    0.87027    0.13857   1.00
C2       0.87715    0.41656    0.21431   1.00
C3       0.93891    0.46957    0.21760   1.00
H1       0.94876    0.49024    0.23029   1.00
C3       0.86327    0.38834    0.19549   1.00
H1       0.82005    0.35184    0.19277   1.00
C4       0.98882    0.49525    0.20294   1.00
C5       0.05944    0.55617    0.20666   1.00
H2       0.05882    0.59754    0.20403   1.00
H2       0.07233    0.55583    0.22051   1.00
H2       0.09169    0.55353    0.19784   1.00
C4       0.91170    0.41250    0.18029   1.00
C5       0.89470    0.38078    0.15872   1.00
H2       0.90817    0.34702    0.15759   1.00
H2       0.84667    0.36029    0.15629   1.00
H2       0.91904    0.41592    0.14885   1.00
C6       0.97505    0.46738    0.18381   1.00
C6       0.02701    0.49442    0.16748   1.00
C4       0.03427    0.54738    0.15523   1.00
C5       0.98462    0.57168    0.15671   1.00
H2       0.00087    0.60845    0.16628   1.00
H2       0.97941    0.58717    0.14373   1.00
H2       0.94132    0.53474    0.16120   1.00
C4       0.06855    0.46585    0.16530   1.00
C5       0.06359    0.40821    0.17856   1.00
H2       0.03083    0.36496    0.17281   1.00
H2       0.10728    0.41114    0.17925   1.00
H2       0.04916    0.41201    0.19192   1.00
C3       0.08545    0.57350    0.14077   1.00
H1       0.08979    0.60834    0.13229   1.00
C3       0.12162    0.49707    0.15025   1.00
H1       0.15120    0.48019    0.14857   1.00
C2       0.12973    0.54937    0.13857   1.00
C2       0.58344    0.46060    0.21431   1.00
C3       0.53043    0.46935    0.21760   1.00
H1       0.50976    0.45853    0.23029   1.00
C3       0.61166    0.47494    0.19549   1.00
H1       0.64816    0.46822    0.19277   1.00
C4       0.50475    0.49358    0.20294   1.00
C5       0.44383    0.50328    0.20666   1.00
H2       0.40246    0.46129    0.20403   1.00
H2       0.44417    0.51651    0.22051   1.00
H2       0.44647    0.53817    0.19784   1.00
C4       0.58750    0.49921    0.18029   1.00
C5       0.61922    0.51393    0.15872   1.00
H2       0.65298    0.56116    0.15759   1.00
H2       0.63971    0.48639    0.15629   1.00
H2       0.58408    0.50313    0.14885   1.00
C6       0.53262    0.50768    0.18381   1.00
C6       0.50558    0.53260    0.16748   1.00
C4       0.45262    0.48690    0.15523   1.00
C5       0.42832    0.41295    0.15671   1.00
H2       0.39155    0.39243    0.16628   1.00
H2       0.41283    0.39225    0.14373   1.00
H2       0.46526    0.40659    0.16120   1.00
C4       0.53415    0.60271    0.16530   1.00
C5       0.59179    0.65539    0.17856   1.00
H2       0.63504    0.66588    0.17281   1.00
H2       0.58886    0.69615    0.17925   1.00
H2       0.58799    0.63716    0.19192   1.00
C3       0.42650    0.51196    0.14077   1.00
H1       0.39166    0.48146    0.13229   1.00
C3       0.50293    0.62456    0.15025   1.00
H1       0.51981    0.67102    0.14857   1.00
C2       0.45063    0.58037    0.13857   1.00
C2       0.78951    0.87274    0.61903   1.00
C3       0.72775    0.86399    0.61574   1.00
H1       0.71790    0.87481    0.60305   1.00
C3       0.80339    0.85840    0.63785   1.00
H1       0.84661    0.86512    0.64057   1.00
C4       0.67784    0.83976    0.63040   1.00
C5       0.60722    0.83006    0.62668   1.00
H2       0.60784    0.87205    0.62931   1.00
H2       0.59433    0.81683    0.61283   1.00
H2       0.57497    0.79517    0.63550   1.00
C4       0.75496    0.83413    0.65305   1.00
C5       0.77196    0.81941    0.67462   1.00
H2       0.75849    0.77218    0.67575   1.00
H2       0.81999    0.84695    0.67705   1.00
H2       0.74762    0.83021    0.68449   1.00
C6       0.69161    0.82566    0.64953   1.00
C6       0.63965    0.80074    0.66586   1.00
C4       0.63239    0.84644    0.67811   1.00
C5       0.68204    0.92039    0.67663   1.00
H2       0.66579    0.94091    0.66706   1.00
H2       0.68725    0.94109    0.68961   1.00
H2       0.72534    0.92675    0.67214   1.00
C4       0.59811    0.73063    0.66804   1.00
C5       0.60307    0.67795    0.65478   1.00
H2       0.63583    0.66746    0.66053   1.00
H2       0.55938    0.63719    0.65409   1.00
H2       0.61750    0.69618    0.64142   1.00
C3       0.58121    0.82138    0.69257   1.00
H1       0.57687    0.85188    0.70105   1.00
C3       0.54504    0.70878    0.68309   1.00
H1       0.51546    0.66232    0.68477   1.00
C2       0.53693    0.75297    0.69477   1.00
C2       0.08322    0.21049    0.61903   1.00
C3       0.13623    0.27225    0.61574   1.00
H1       0.15690    0.28210    0.60305   1.00
C3       0.05500    0.19661    0.63785   1.00
H1       0.01850    0.15339    0.64057   1.00
C4       0.16191    0.32216    0.63040   1.00
C5       0.22283    0.39278    0.62668   1.00
H2       0.26420    0.39216    0.62931   1.00
H2       0.22249    0.40567    0.61283   1.00
H2       0.22019    0.42503    0.63550   1.00
C4       0.07916    0.24504    0.65305   1.00
C5       0.04744    0.22804    0.67462   1.00
H2       0.01368    0.24151    0.67575   1.00
H2       0.02695    0.18001    0.67705   1.00
H2       0.08258    0.25238    0.68449   1.00
C6       0.13404    0.30839    0.64953   1.00
C6       0.16108    0.36035    0.66586   1.00
C4       0.21404    0.36761    0.67811   1.00
C5       0.23834    0.31796    0.67663   1.00
H2       0.27511    0.33421    0.66706   1.00
H2       0.25383    0.31275    0.68961   1.00
H2       0.20140    0.27466    0.67214   1.00
C4       0.13251    0.40189    0.66804   1.00
C5       0.07487    0.39693    0.65478   1.00
H2       0.03162    0.36417    0.66053   1.00
H2       0.07780    0.44062    0.65409   1.00
H2       0.07867    0.38250    0.64142   1.00
C3       0.24016    0.41879    0.69257   1.00
H1       0.27500    0.42313    0.70105   1.00
C3       0.16373    0.45496    0.68309   1.00
H1       0.14685    0.48454    0.68477   1.00
C2       0.21603    0.46307    0.69477   1.00
C2       0.12726    0.91678    0.61903   1.00
C3       0.13601    0.86377    0.61574   1.00
H1       0.12519    0.84310    0.60305   1.00
C3       0.14160    0.94500    0.63785   1.00
H1       0.13488    0.98150    0.64057   1.00
C4       0.16024    0.83809    0.63040   1.00
C5       0.16994    0.77717    0.62668   1.00
H2       0.12795    0.73580    0.62931   1.00
H2       0.18317    0.77751    0.61283   1.00
H2       0.20483    0.77981    0.63550   1.00
C4       0.16587    0.92084    0.65305   1.00
C5       0.18059    0.95256    0.67462   1.00
H2       0.22782    0.98632    0.67575   1.00
H2       0.15305    0.97305    0.67705   1.00
H2       0.16979    0.91742    0.68449   1.00
C6       0.17434    0.86596    0.64953   1.00
C6       0.19926    0.83892    0.66586   1.00
C4       0.15356    0.78596    0.67811   1.00
C5       0.07961    0.76166    0.67663   1.00
H2       0.05909    0.72489    0.66706   1.00
H2       0.05891    0.74617    0.68961   1.00
H2       0.07325    0.79860    0.67214   1.00
C4       0.26937    0.86749    0.66804   1.00
C5       0.32205    0.92513    0.65478   1.00
H2       0.33254    0.96838    0.66053   1.00
H2       0.36281    0.92220    0.65409   1.00
H2       0.30382    0.92133    0.64142   1.00
C3       0.17862    0.75984    0.69257   1.00
H1       0.14812    0.72500    0.70105   1.00
C3       0.29122    0.83627    0.68309   1.00
H1       0.33768    0.85315    0.68477   1.00
C2       0.24703    0.78397    0.69477   1.00
