data_IRMOF10_interpen_symm_ligand4cp_label_g_2.

_audit_creation_method             'generated by an auxiliary program of Tobunporous'

_symmetry_space_group_name_H-M     'P 1'
_symmetry_Int_Tables_number        1
_symmetry_cell_setting             triclinic

_cell_length_a                    22.6523
_cell_length_b                    22.6523
_cell_length_c                    65.9502
_cell_angle_alpha                 90.0000
_cell_angle_beta                  90.0000
_cell_angle_gamma                 120.0000

loop_
_atom_site_label
_atom_site_fract_x
_atom_site_fract_y
_atom_site_fract_z
_atom_site_occupancy
O1       0.00000    0.00000    0.57470   1.00
Zn1      0.00000    0.00000    0.54560   1.00
Zn1      0.94843    0.04287    0.58357   1.00
Zn1      0.09443    0.05157    0.58357   1.00
Zn1      0.95713    0.90557    0.58357   1.00
O2       0.93860    0.02610    0.53560   1.00
O2       0.08750    0.06140    0.53560   1.00
O2       0.97390    0.91250    0.53560   1.00
O2       0.91300    0.07160    0.56150   1.00
O2       0.00463    0.12027    0.60077   1.00
O2       0.87413    0.98077    0.60037   1.00
O2       0.15860    0.08700    0.56150   1.00
O2       0.10663    0.12587    0.60037   1.00
O2       0.11563    0.99537    0.60077   1.00
O2       0.92840    0.84140    0.56150   1.00
O2       0.87973    0.88437    0.60077   1.00
O2       0.01923    0.89337    0.60037   1.00
C1       0.91390    0.06020    0.54330   1.00
C1       0.14630    0.08610    0.54330   1.00
C1       0.93980    0.85370    0.54330   1.00
C1       0.06663    0.14397    0.60637   1.00
C1       0.85603    0.92267    0.60637   1.00
C1       0.07733    0.93337    0.60637   1.00
O1       0.00000    0.00000    0.92530   1.00
Zn1      0.00000    0.00000    0.95440   1.00
Zn1      0.04287    0.94843    0.91643   1.00
Zn1      0.05157    0.09443    0.91643   1.00
Zn1      0.90557    0.95713    0.91643   1.00
O2       0.02610    0.93860    0.96440   1.00
O2       0.06140    0.08750    0.96440   1.00
O2       0.91250    0.97390    0.96440   1.00
O2       0.07160    0.91300    0.93850   1.00
O2       0.12027    0.00463    0.89923   1.00
O2       0.98077    0.87413    0.89963   1.00
O2       0.08700    0.15860    0.93850   1.00
O2       0.12587    0.10663    0.89963   1.00
O2       0.99537    0.11563    0.89923   1.00
O2       0.84140    0.92840    0.93850   1.00
O2       0.88437    0.87973    0.89923   1.00
O2       0.89337    0.01923    0.89963   1.00
C1       0.06020    0.91390    0.95670   1.00
C1       0.08610    0.14630    0.95670   1.00
C1       0.85370    0.93980    0.95670   1.00
C1       0.14397    0.06663    0.89363   1.00
C1       0.92267    0.85603    0.89363   1.00
C1       0.93337    0.07733    0.89363   1.00
O1       0.00000    0.00000    0.42530   1.00
Zn1      0.00000    0.00000    0.45440   1.00
Zn1      0.05157    0.95713    0.41643   1.00
Zn1      0.90557    0.94843    0.41643   1.00
Zn1      0.04287    0.09443    0.41643   1.00
O2       0.06140    0.97390    0.46440   1.00
O2       0.91250    0.93860    0.46440   1.00
O2       0.02610    0.08750    0.46440   1.00
O2       0.08700    0.92840    0.43850   1.00
O2       0.99537    0.87973    0.39923   1.00
O2       0.12587    0.01923    0.39963   1.00
O2       0.84140    0.91300    0.43850   1.00
O2       0.89337    0.87413    0.39963   1.00
O2       0.88437    0.00463    0.39923   1.00
O2       0.07160    0.15860    0.43850   1.00
O2       0.12027    0.11563    0.39923   1.00
O2       0.98077    0.10663    0.39963   1.00
C1       0.08610    0.93980    0.45670   1.00
C1       0.85370    0.91390    0.45670   1.00
C1       0.06020    0.14630    0.45670   1.00
C1       0.93337    0.85603    0.39363   1.00
C1       0.14397    0.07733    0.39363   1.00
C1       0.92267    0.06663    0.39363   1.00
O1       0.00000    0.00000    0.07470   1.00
Zn1      0.00000    0.00000    0.04560   1.00
Zn1      0.95713    0.05157    0.08357   1.00
Zn1      0.94843    0.90557    0.08357   1.00
Zn1      0.09443    0.04287    0.08357   1.00
O2       0.97390    0.06140    0.03560   1.00
O2       0.93860    0.91250    0.03560   1.00
O2       0.08750    0.02610    0.03560   1.00
O2       0.92840    0.08700    0.06150   1.00
O2       0.87973    0.99537    0.10077   1.00
O2       0.01923    0.12587    0.10037   1.00
O2       0.91300    0.84140    0.06150   1.00
O2       0.87413    0.89337    0.10037   1.00
O2       0.00463    0.88437    0.10077   1.00
O2       0.15860    0.07160    0.06150   1.00
O2       0.11563    0.12027    0.10077   1.00
O2       0.10663    0.98077    0.10037   1.00
C1       0.93980    0.08610    0.04330   1.00
C1       0.91390    0.85370    0.04330   1.00
C1       0.14630    0.06020    0.04330   1.00
C1       0.85603    0.93337    0.10637   1.00
C1       0.07733    0.14397    0.10637   1.00
C1       0.06663    0.92267    0.10637   1.00
O1       0.66667    0.33333    0.90803   1.00
Zn1      0.66667    0.33333    0.87893   1.00
Zn1      0.61510    0.37620    0.91690   1.00
Zn1      0.76110    0.38490    0.91690   1.00
Zn1      0.62380    0.23890    0.91690   1.00
O2       0.60527    0.35943    0.86893   1.00
O2       0.75417    0.39473    0.86893   1.00
O2       0.64057    0.24583    0.86893   1.00
O2       0.57967    0.40493    0.89483   1.00
O2       0.67130    0.45360    0.93410   1.00
O2       0.54080    0.31410    0.93370   1.00
O2       0.82527    0.42033    0.89483   1.00
O2       0.77330    0.45920    0.93370   1.00
O2       0.78230    0.32870    0.93410   1.00
O2       0.59507    0.17473    0.89483   1.00
O2       0.54640    0.21770    0.93410   1.00
O2       0.68590    0.22670    0.93370   1.00
C1       0.58057    0.39353    0.87663   1.00
C1       0.81297    0.41943    0.87663   1.00
C1       0.60647    0.18703    0.87663   1.00
C1       0.73330    0.47730    0.93970   1.00
C1       0.52270    0.25600    0.93970   1.00
C1       0.74400    0.26670    0.93970   1.00
O1       0.66667    0.33333    0.25863   1.00
Zn1      0.66667    0.33333    0.28773   1.00
Zn1      0.70953    0.28177    0.24977   1.00
Zn1      0.71823    0.42777    0.24977   1.00
Zn1      0.57223    0.29047    0.24977   1.00
O2       0.69277    0.27193    0.29773   1.00
O2       0.72807    0.42083    0.29773   1.00
O2       0.57917    0.30723    0.29773   1.00
O2       0.73827    0.24633    0.27183   1.00
O2       0.78693    0.33797    0.23257   1.00
O2       0.64743    0.20747    0.23297   1.00
O2       0.75367    0.49193    0.27183   1.00
O2       0.79253    0.43997    0.23297   1.00
O2       0.66203    0.44897    0.23257   1.00
O2       0.50807    0.26173    0.27183   1.00
O2       0.55103    0.21307    0.23257   1.00
O2       0.56003    0.35257    0.23297   1.00
C1       0.72687    0.24723    0.29003   1.00
C1       0.75277    0.47963    0.29003   1.00
C1       0.52037    0.27313    0.29003   1.00
C1       0.81063    0.39997    0.22697   1.00
C1       0.58933    0.18937    0.22697   1.00
C1       0.60003    0.41067    0.22697   1.00
O1       0.66667    0.33333    0.75863   1.00
Zn1      0.66667    0.33333    0.78773   1.00
Zn1      0.71823    0.29047    0.74977   1.00
Zn1      0.57223    0.28177    0.74977   1.00
Zn1      0.70953    0.42777    0.74977   1.00
O2       0.72807    0.30723    0.79773   1.00
O2       0.57917    0.27193    0.79773   1.00
O2       0.69277    0.42083    0.79773   1.00
O2       0.75367    0.26173    0.77183   1.00
O2       0.66203    0.21307    0.73257   1.00
O2       0.79253    0.35257    0.73297   1.00
O2       0.50807    0.24633    0.77183   1.00
O2       0.56003    0.20747    0.73297   1.00
O2       0.55103    0.33797    0.73257   1.00
O2       0.73827    0.49193    0.77183   1.00
O2       0.78693    0.44897    0.73257   1.00
O2       0.64743    0.43997    0.73297   1.00
C1       0.75277    0.27313    0.79003   1.00
C1       0.52037    0.24723    0.79003   1.00
C1       0.72687    0.47963    0.79003   1.00
C1       0.60003    0.18937    0.72697   1.00
C1       0.81063    0.41067    0.72697   1.00
C1       0.58933    0.39997    0.72697   1.00
O1       0.66667    0.33333    0.40803   1.00
Zn1      0.66667    0.33333    0.37893   1.00
Zn1      0.62380    0.38490    0.41690   1.00
Zn1      0.61510    0.23890    0.41690   1.00
Zn1      0.76110    0.37620    0.41690   1.00
O2       0.64057    0.39473    0.36893   1.00
O2       0.60527    0.24583    0.36893   1.00
O2       0.75417    0.35943    0.36893   1.00
O2       0.59507    0.42033    0.39483   1.00
O2       0.54640    0.32870    0.43410   1.00
O2       0.68590    0.45920    0.43370   1.00
O2       0.57967    0.17473    0.39483   1.00
O2       0.54080    0.22670    0.43370   1.00
O2       0.67130    0.21770    0.43410   1.00
O2       0.82527    0.40493    0.39483   1.00
O2       0.78230    0.45360    0.43410   1.00
O2       0.77330    0.31410    0.43370   1.00
C1       0.60647    0.41943    0.37663   1.00
C1       0.58057    0.18703    0.37663   1.00
C1       0.81297    0.39353    0.37663   1.00
C1       0.52270    0.26670    0.43970   1.00
C1       0.74400    0.47730    0.43970   1.00
C1       0.73330    0.25600    0.43970   1.00
O1       0.33333    0.66667    0.24137   1.00
Zn1      0.33333    0.66667    0.21227   1.00
Zn1      0.28177    0.70953    0.25023   1.00
Zn1      0.42777    0.71823    0.25023   1.00
Zn1      0.29047    0.57223    0.25023   1.00
O2       0.27193    0.69277    0.20227   1.00
O2       0.42083    0.72807    0.20227   1.00
O2       0.30723    0.57917    0.20227   1.00
O2       0.24633    0.73827    0.22817   1.00
O2       0.33797    0.78693    0.26743   1.00
O2       0.20747    0.64743    0.26703   1.00
O2       0.49193    0.75367    0.22817   1.00
O2       0.43997    0.79253    0.26703   1.00
O2       0.44897    0.66203    0.26743   1.00
O2       0.26173    0.50807    0.22817   1.00
O2       0.21307    0.55103    0.26743   1.00
O2       0.35257    0.56003    0.26703   1.00
C1       0.24723    0.72687    0.20997   1.00
C1       0.47963    0.75277    0.20997   1.00
C1       0.27313    0.52037    0.20997   1.00
C1       0.39997    0.81063    0.27303   1.00
C1       0.18937    0.58933    0.27303   1.00
C1       0.41067    0.60003    0.27303   1.00
O1       0.33333    0.66667    0.59197   1.00
Zn1      0.33333    0.66667    0.62107   1.00
Zn1      0.37620    0.61510    0.58310   1.00
Zn1      0.38490    0.76110    0.58310   1.00
Zn1      0.23890    0.62380    0.58310   1.00
O2       0.35943    0.60527    0.63107   1.00
O2       0.39473    0.75417    0.63107   1.00
O2       0.24583    0.64057    0.63107   1.00
O2       0.40493    0.57967    0.60517   1.00
O2       0.45360    0.67130    0.56590   1.00
O2       0.31410    0.54080    0.56630   1.00
O2       0.42033    0.82527    0.60517   1.00
O2       0.45920    0.77330    0.56630   1.00
O2       0.32870    0.78230    0.56590   1.00
O2       0.17473    0.59507    0.60517   1.00
O2       0.21770    0.54640    0.56590   1.00
O2       0.22670    0.68590    0.56630   1.00
C1       0.39353    0.58057    0.62337   1.00
C1       0.41943    0.81297    0.62337   1.00
C1       0.18703    0.60647    0.62337   1.00
C1       0.47730    0.73330    0.56030   1.00
C1       0.25600    0.52270    0.56030   1.00
C1       0.26670    0.74400    0.56030   1.00
O1       0.33333    0.66667    0.09197   1.00
Zn1      0.33333    0.66667    0.12107   1.00
Zn1      0.38490    0.62380    0.08310   1.00
Zn1      0.23890    0.61510    0.08310   1.00
Zn1      0.37620    0.76110    0.08310   1.00
O2       0.39473    0.64057    0.13107   1.00
O2       0.24583    0.60527    0.13107   1.00
O2       0.35943    0.75417    0.13107   1.00
O2       0.42033    0.59507    0.10517   1.00
O2       0.32870    0.54640    0.06590   1.00
O2       0.45920    0.68590    0.06630   1.00
O2       0.17473    0.57967    0.10517   1.00
O2       0.22670    0.54080    0.06630   1.00
O2       0.21770    0.67130    0.06590   1.00
O2       0.40493    0.82527    0.10517   1.00
O2       0.45360    0.78230    0.06590   1.00
O2       0.31410    0.77330    0.06630   1.00
C1       0.41943    0.60647    0.12337   1.00
C1       0.18703    0.58057    0.12337   1.00
C1       0.39353    0.81297    0.12337   1.00
C1       0.26670    0.52270    0.06030   1.00
C1       0.47730    0.74400    0.06030   1.00
C1       0.25600    0.73330    0.06030   1.00
O1       0.33333    0.66667    0.74137   1.00
Zn1      0.33333    0.66667    0.71227   1.00
Zn1      0.29047    0.71823    0.75023   1.00
Zn1      0.28177    0.57223    0.75023   1.00
Zn1      0.42777    0.70953    0.75023   1.00
O2       0.30723    0.72807    0.70227   1.00
O2       0.27193    0.57917    0.70227   1.00
O2       0.42083    0.69277    0.70227   1.00
O2       0.26173    0.75367    0.72817   1.00
O2       0.21307    0.66203    0.76743   1.00
O2       0.35257    0.79253    0.76703   1.00
O2       0.24633    0.50807    0.72817   1.00
O2       0.20747    0.56003    0.76703   1.00
O2       0.33797    0.55103    0.76743   1.00
O2       0.49193    0.73827    0.72817   1.00
O2       0.44897    0.78693    0.76743   1.00
O2       0.43997    0.64743    0.76703   1.00
C1       0.27313    0.75277    0.70997   1.00
C1       0.24723    0.52037    0.70997   1.00
C1       0.47963    0.72687    0.70997   1.00
C1       0.18937    0.60003    0.77303   1.00
C1       0.41067    0.81063    0.77303   1.00
C1       0.39997    0.58933    0.77303   1.00
C4       0.83225    0.63406    0.48660   1.00
C4       0.85894    0.68600    0.50180   1.00
C3       0.87460    0.62714    0.47193   1.00
C3       0.93029    0.72998    0.50474   1.00
C3       0.76057    0.58686    0.48580   1.00
C3       0.81329    0.69496    0.51472   1.00
C2       0.77876    0.52701    0.45648   1.00
C2       0.91295    0.79323    0.53187   1.00
C3       0.84884    0.57510    0.45738   1.00
C3       0.95658    0.78221    0.51923   1.00
C3       0.73643    0.53436    0.47081   1.00
C3       0.84213    0.74899    0.52922   1.00
H1       0.92566    0.66008    0.47114   1.00
H1       0.96583    0.72528    0.49659   1.00
C5       0.71503    0.59300    0.49963   1.00
C5       0.74102    0.65042    0.51306   1.00
H1       0.88210    0.57271    0.44727   1.00
H1       1.00854    0.81237    0.52054   1.00
H1       0.68587    0.49956    0.46985   1.00
H1       0.81132    0.75727    0.53858   1.00
C6       0.64043    0.53851    0.50002   1.00
C6       0.69317    0.66499    0.52531   1.00
H2       0.63634    0.48852    0.49929   1.00
H2       0.71084    0.71941    0.52464   1.00
H2       0.61723    0.53624    0.51465   1.00
H2       0.64327    0.64343    0.51823   1.00
C6       0.59740    0.54761    0.48296   1.00
C6       0.68412    0.63891    0.54775   1.00
H2       0.62533    0.55983    0.46862   1.00
H2       0.73383    0.65200    0.55407   1.00
C6       0.52373    0.48673    0.47901   1.00
C6       0.64842    0.66414    0.56299   1.00
H2       0.59367    0.59264    0.48669   1.00
H2       0.65518    0.58323    0.54739   1.00
C6       0.52500    0.42354    0.47047   1.00
C6       0.69203    0.74196    0.56690   1.00
C6       0.47971    0.46616    0.49852   1.00
C6       0.57681    0.64703    0.55542   1.00
C6       0.48879    0.50921    0.46294   1.00
C6       0.63951    0.62736    0.58359   1.00
H2       0.55662    0.43665    0.45686   1.00
H2       0.74332    0.75588    0.57194   1.00
H2       0.54515    0.40244    0.48152   1.00
H2       0.69685    0.77120    0.55327   1.00
H2       0.47382    0.38311    0.46645   1.00
H2       0.66905    0.75821    0.57857   1.00
H2       0.42716    0.42705    0.49530   1.00
H2       0.55043    0.66040    0.56679   1.00
H2       0.49947    0.44550    0.50987   1.00
H2       0.58049    0.67533    0.54165   1.00
H2       0.47914    0.51009    0.50508   1.00
H2       0.54553    0.59271    0.55214   1.00
H2       0.51753    0.52364    0.44875   1.00
H2       0.68879    0.63837    0.58972   1.00
H2       0.43722    0.46815    0.45956   1.00
H2       0.61514    0.64368    0.59481   1.00
H2       0.48511    0.55290    0.46827   1.00
H2       0.60794    0.57219    0.58190   1.00
C4       0.35700    0.18460    0.48382   1.00
C4       0.30156    0.15876    0.49786   1.00
C3       0.41064    0.16920    0.48535   1.00
C3       0.29206    0.11015    0.51310   1.00
C3       0.35980    0.22763    0.46753   1.00
C3       0.25321    0.18176    0.49684   1.00
C2       0.46739    0.23408    0.45484   1.00
C2       0.19137    0.10898    0.52691   1.00
C3       0.46402    0.19284    0.47127   1.00
C3       0.23889    0.08621    0.52726   1.00
C3       0.41483    0.25034    0.45345   1.00
C3       0.20001    0.15641    0.51161   1.00
H1       0.41330    0.14080    0.49688   1.00
H1       0.32302    0.08981    0.51436   1.00
C5       0.30881    0.24723    0.46568   1.00
C5       0.25845    0.22848    0.48130   1.00
H1       0.50100    0.17971    0.47318   1.00
H1       0.23500    0.05138    0.53793   1.00
H1       0.41832    0.28063    0.44159   1.00
H1       0.16492    0.17192    0.51146   1.00
C6       0.30834    0.28670    0.44720   1.00
C6       0.21138    0.25793    0.48171   1.00
H2       0.31720    0.26442    0.43371   1.00
H2       0.20780    0.27256    0.49720   1.00
H2       0.25780    0.27909    0.44422   1.00
H2       0.23355    0.30668    0.47390   1.00
C6       0.36026    0.36510    0.44873   1.00
C6       0.13925    0.20883    0.47249   1.00
H2       0.40891    0.37319    0.45460   1.00
H2       0.12073    0.15705    0.47808   1.00
C6       0.37523    0.40854    0.42894   1.00
C6       0.08181    0.22695    0.47614   1.00
H2       0.34136    0.38622    0.46026   1.00
H2       0.14546    0.20611    0.45615   1.00
C6       0.41245    0.38903    0.41283   1.00
C6       0.06202    0.22121    0.49888   1.00
C6       0.30905    0.40105    0.41960   1.00
C6       0.10310    0.29953    0.46842   1.00
C6       0.42277    0.48481    0.43439   1.00
C6       0.01725    0.17537    0.46422   1.00
H2       0.45887    0.39272    0.41907   1.00
H2       0.04779    0.17085    0.50488   1.00
H2       0.38020    0.33713    0.40738   1.00
H2       0.10396    0.25906    0.50802   1.00
H2       0.42686    0.42270    0.39968   1.00
H2       0.01881    0.22928    0.50108   1.00
H2       0.32050    0.43520    0.40667   1.00
H2       0.06101    0.30980    0.46971   1.00
H2       0.27572    0.34919    0.41422   1.00
H2       0.14553    0.33819    0.47726   1.00
H2       0.28112    0.41312    0.43077   1.00
H2       0.11866    0.30539    0.45255   1.00
H2       0.47068    0.49305    0.44087   1.00
H2       -0.00037   0.12322    0.46925   1.00
H2       0.43509    0.51726    0.42100   1.00
H2       -0.02455   0.18567    0.46641   1.00
H2       0.39872    0.50206    0.44543   1.00
H2       0.02761    0.17796    0.44798   1.00
C4       0.81447    0.17072    0.48356   1.00
C4       0.83974    0.14066    0.49764   1.00
C3       0.84068    0.24244    0.48254   1.00
C3       0.89756    0.18048    0.51018   1.00
C3       0.76089    0.12820    0.46987   1.00
C3       0.80660    0.06809    0.49943   1.00
C2       0.76574    0.23184    0.45441   1.00
C2       0.88885    0.08005    0.52683   1.00
C3       0.81739    0.27222    0.46836   1.00
C3       0.92126    0.15124    0.52441   1.00
C3       0.73886    0.16057    0.45559   1.00
C3       0.83210    0.04033    0.51419   1.00
H1       0.87722    0.27568    0.49220   1.00
H1       0.92505    0.23221    0.50930   1.00
C5       0.73050    0.05545    0.47075   1.00
C5       0.74991    0.02526    0.48662   1.00
H1       0.83857    0.32429    0.46835   1.00
H1       0.96306    0.18277    0.53305   1.00
H1       0.70120    0.13209    0.44552   1.00
H1       0.80961    -0.01102   0.51601   1.00
C6       0.67903    0.01160    0.45480   1.00
C6       0.71087    -0.05102   0.49016   1.00
H2       0.69726    0.03473    0.43994   1.00
H2       0.70268    -0.06082   0.50639   1.00
H2       0.67702    -0.03707   0.45298   1.00
H2       0.65884    -0.07406   0.48457   1.00
C6       0.60533    -0.00168   0.45919   1.00
C6       0.74607    -0.08883   0.48049   1.00
H2       0.60799    0.04585    0.46394   1.00
H2       0.80080    -0.06019   0.48361   1.00
C6       0.55158    -0.03312   0.44170   1.00
C6       0.71899    -0.16468   0.48690   1.00
H2       0.58563    -0.03540   0.47234   1.00
H2       0.74163    -0.08715   0.46403   1.00
C6       0.57034    0.01671    0.42355   1.00
C6       0.73341    -0.17048   0.50960   1.00
C6       0.54355    -0.10149   0.43410   1.00
C6       0.64155    -0.20974   0.48278   1.00
C6       0.48142    -0.04743   0.44997   1.00
C6       0.75673    -0.19339   0.47418   1.00
H2       0.57747    0.06592    0.42848   1.00
H2       0.78755    -0.13835   0.51307   1.00
H2       0.61720    0.02576    0.41620   1.00
H2       0.70500    -0.15504   0.51948   1.00
H2       0.53027    -0.00367   0.41207   1.00
H2       0.71865    -0.22286   0.51356   1.00
H2       0.50258    -0.12537   0.42295   1.00
H2       0.62418    -0.26329   0.48593   1.00
H2       0.59022    -0.09360   0.42686   1.00
H2       0.61221    -0.19463   0.49240   1.00
H2       0.53173    -0.13702   0.44666   1.00
H2       0.62982    -0.20546   0.46699   1.00
H2       0.48411    -0.00054   0.45536   1.00
H2       0.81171    -0.16374   0.47670   1.00
H2       0.44218    -0.06906   0.43824   1.00
H2       0.73984    -0.24625   0.47822   1.00
H2       0.46470    -0.08344   0.46258   1.00
H2       0.74739    -0.19196   0.45800   1.00
C4       0.63393    0.83190    0.01335   1.00
C4       0.68590    0.85851    -0.00184   1.00
C3       0.62531    0.87460    0.02748   1.00
C3       0.72812    0.92981    -0.00534   1.00
C3       0.58845    0.75996    0.01470   1.00
C3       0.69670    0.81281    -0.01417   1.00
C2       0.52676    0.77845    0.04344   1.00
C2       0.79322    0.91249    -0.03188   1.00
C3       0.57319    0.84885    0.04202   1.00
C3       0.78039    0.95611    -0.01982   1.00
C3       0.53582    0.73582    0.02964   1.00
C3       0.75072    0.84167    -0.02868   1.00
H1       0.65699    0.92597    0.02788   1.00
H1       0.72203    0.96530    0.00237   1.00
C5       0.59639    0.71418    0.00144   1.00
C5       0.65395    0.74046    -0.01194   1.00
H1       0.56953    0.88236    0.05172   1.00
H1       0.80923    1.00805    -0.02154   1.00
H1       0.50221    0.68505    0.03098   1.00
H1       0.76028    0.81085    -0.03763   1.00
C6       0.54361    0.63899    0.00159   1.00
C6       0.67054    0.69287    -0.02355   1.00
H2       0.49290    0.63325    0.00206   1.00
H2       0.72526    0.71222    -0.02275   1.00
H2       0.54221    0.61476    -0.01278   1.00
H2       0.65034    0.64381    -0.01603   1.00
C6       0.55430    0.59872    0.01919   1.00
C6       0.64445    0.68093    -0.04602   1.00
H2       0.56567    0.62792    0.03327   1.00
H2       0.65603    0.72957    -0.05283   1.00
C6       0.49497    0.52463    0.02362   1.00
C6       0.67147    0.64536    -0.06069   1.00
H2       0.60027    0.59632    0.01577   1.00
H2       0.58884    0.65056    -0.04566   1.00
C6       0.43060    0.52442    0.03177   1.00
C6       0.74910    0.69056    -0.06464   1.00
C6       0.47571    0.47885    0.00451   1.00
C6       0.65656    0.57520    -0.05240   1.00
C6       0.51900    0.49267    0.04022   1.00
C6       0.63448    0.63334    -0.08140   1.00
H2       0.44273    0.55720    0.04508   1.00
H2       0.76147    0.74091    -0.07019   1.00
H2       0.40847    0.54239    0.02037   1.00
H2       0.77861    0.69763    -0.05090   1.00
H2       0.39127    0.47313    0.03614   1.00
H2       0.76651    0.66748    -0.07595   1.00
H2       0.43778    0.42619    0.00810   1.00
H2       0.67116    0.54871    -0.06339   1.00
H2       0.45405    0.49642    -0.00718   1.00
H2       0.68514    0.58113    -0.03852   1.00
H2       0.52045    0.47924    -0.00178   1.00
H2       0.60240    0.54286    -0.04909   1.00
H2       0.53257    0.52274    0.05415   1.00
H2       0.64396    0.68150    -0.08803   1.00
H2       0.47903    0.44093    0.04395   1.00
H2       0.65200    0.60894    -0.09223   1.00
H2       0.56359    0.49012    0.03520   1.00
H2       0.57947    0.60054    -0.07967   1.00
C4       0.18460    0.35700    0.01619   1.00
C4       0.15877    0.30155    0.00214   1.00
C3       0.16914    0.41059    0.01466   1.00
C3       0.11010    0.29201    -0.01309   1.00
C3       0.22770    0.35984    0.03246   1.00
C3       0.18183    0.25325    0.00315   1.00
C2       0.23408    0.46738    0.04516   1.00
C2       0.10900    0.19137    -0.02691   1.00
C3       0.19278    0.46397    0.02874   1.00
C3       0.08616    0.23884    -0.02725   1.00
C3       0.25040    0.41486    0.04654   1.00
C3       0.15648    0.20005    -0.01163   1.00
H1       0.14068    0.41322    0.00315   1.00
H1       0.08971    0.32293    -0.01433   1.00
C5       0.24737    0.30890    0.03429   1.00
C5       0.22861    0.25855    0.01867   1.00
H1       0.17959    0.50091    0.02684   1.00
H1       0.05128    0.23491    -0.03790   1.00
H1       0.28074    0.41838    0.05839   1.00
H1       0.17204    0.16500    -0.01149   1.00
C6       0.28691    0.30847    0.05275   1.00
C6       0.25813    0.21153    0.01825   1.00
H2       0.26466    0.31731    0.06626   1.00
H2       0.27273    0.20796    0.00274   1.00
H2       0.27936    0.25795    0.05573   1.00
H2       0.30691    0.23374    0.02604   1.00
C6       0.36530    0.36045    0.05121   1.00
C6       0.20911    0.13938    0.02747   1.00
H2       0.37332    0.40908    0.04535   1.00
H2       0.15731    0.12082    0.02189   1.00
C6       0.40881    0.37546    0.07098   1.00
C6       0.22729    0.08200    0.02380   1.00
H2       0.38641    0.34158    0.03967   1.00
H2       0.20643    0.14559    0.04382   1.00
C6       0.38929    0.41264    0.08711   1.00
C6       0.22150    0.06221    0.00106   1.00
C6       0.40141    0.30931    0.08032   1.00
C6       0.29991    0.10335    0.03150   1.00
C6       0.48505    0.42305    0.06552   1.00
C6       0.17578    0.01742    0.03573   1.00
H2       0.39292    0.45904    0.08088   1.00
H2       0.17111    0.04793    -0.00492   1.00
H2       0.33741    0.38035    0.09258   1.00
H2       0.25929    0.10417    -0.00808   1.00
H2       0.42301    0.42708    0.10025   1.00
H2       0.22961    0.01903    -0.00115   1.00
H2       0.43560    0.32079    0.09324   1.00
H2       0.31023    0.06129    0.03021   1.00
H2       0.34957    0.27594    0.08571   1.00
H2       0.33852    0.14580    0.02265   1.00
H2       0.41348    0.28140    0.06914   1.00
H2       0.30580    0.11891    0.04737   1.00
H2       0.49322    0.47095    0.05904   1.00
H2       0.12361    -0.00025   0.03071   1.00
H2       0.51754    0.43540    0.07890   1.00
H2       0.18612    -0.02435   0.03353   1.00
H2       0.50230    0.39903    0.05447   1.00
H2       0.17841    0.02777    0.05197   1.00
C4       0.17072    0.81447    0.01644   1.00
C4       0.14066    0.83974    0.00236   1.00
C3       0.24244    0.84068    0.01746   1.00
C3       0.18048    0.89756    -0.01018   1.00
C3       0.12820    0.76089    0.03013   1.00
C3       0.06809    0.80660    0.00057   1.00
C2       0.23184    0.76574    0.04559   1.00
C2       0.08005    0.88885    -0.02683   1.00
C3       0.27222    0.81739    0.03164   1.00
C3       0.15124    0.92126    -0.02441   1.00
C3       0.16057    0.73886    0.04441   1.00
C3       0.04033    0.83210    -0.01419   1.00
H1       0.27568    0.87722    0.00780   1.00
H1       0.23221    0.92505    -0.00930   1.00
C5       0.05545    0.73051    0.02926   1.00
C5       0.02526    0.74991    0.01338   1.00
H1       0.32429    0.83857    0.03165   1.00
H1       0.18277    0.96306    -0.03305   1.00
H1       0.13209    0.70120    0.05448   1.00
H1       -0.01102   0.80961    -0.01601   1.00
C6       0.01160    0.67903    0.04520   1.00
C6       -0.05102   0.71087    0.00984   1.00
H2       0.03473    0.69726    0.06006   1.00
H2       -0.06082   0.70268    -0.00639   1.00
H2       -0.03707   0.67703    0.04702   1.00
H2       -0.07406   0.65884    0.01543   1.00
C6       -0.00168   0.60533    0.04081   1.00
C6       -0.08883   0.74607    0.01951   1.00
H2       0.04585    0.60799    0.03606   1.00
H2       -0.06019   0.80080    0.01639   1.00
C6       -0.03312   0.55158    0.05830   1.00
C6       -0.16468   0.71899    0.01310   1.00
H2       -0.03541   0.58563    0.02766   1.00
H2       -0.08715   0.74163    0.03597   1.00
C6       0.01671    0.57034    0.07645   1.00
C6       -0.17048   0.73341    -0.00960   1.00
C6       -0.10149   0.54355    0.06590   1.00
C6       -0.20974   0.64156    0.01722   1.00
C6       -0.04743   0.48142    0.05003   1.00
C6       -0.19339   0.75673    0.02582   1.00
H2       0.06592    0.57747    0.07152   1.00
H2       -0.13835   0.78755    -0.01307   1.00
H2       0.02576    0.61720    0.08380   1.00
H2       -0.15504   0.70500    -0.01948   1.00
H2       -0.00367   0.53027    0.08793   1.00
H2       -0.22286   0.71865    -0.01356   1.00
H2       -0.12537   0.50258    0.07705   1.00
H2       -0.26329   0.62418    0.01407   1.00
H2       -0.09360   0.59022    0.07315   1.00
H2       -0.19463   0.61221    0.00760   1.00
H2       -0.13702   0.53173    0.05334   1.00
H2       -0.20546   0.62982    0.03301   1.00
H2       -0.00054   0.48411    0.04464   1.00
H2       -0.16374   0.81171    0.02330   1.00
H2       -0.06906   0.44218    0.06176   1.00
H2       -0.24625   0.73984    0.02178   1.00
H2       -0.08344   0.46470    0.03742   1.00
H2       -0.19196   0.74740    0.04200   1.00
C4       0.16797    0.35559    0.51669   1.00
C4       0.14133    0.30109    0.50230   1.00
C3       0.12538    0.37370    0.52780   1.00
C3       0.07000    0.25644    0.49958   1.00
C3       0.23983    0.39407    0.52027   1.00
C3       0.18702    0.29000    0.49006   1.00
C2       0.22144    0.46361    0.54650   1.00
C2       0.08734    0.19295    0.47252   1.00
C3       0.15114    0.42581    0.54233   1.00
C3       0.04370    0.20420    0.48509   1.00
C3       0.26397    0.44649    0.53528   1.00
C3       0.15817    0.23648    0.47540   1.00
H1       0.07412    0.35015    0.52561   1.00
H1       0.03448    0.25976    0.50817   1.00
C5       0.28553    0.38010    0.50893   1.00
C5       0.25936    0.33147    0.49270   1.00
H1       0.11771    0.43619    0.54990   1.00
H1       -0.00826   0.17392    0.48382   1.00
H1       0.31467    0.47465    0.53835   1.00
H1       0.18900    0.22732    0.46632   1.00
C6       0.36052    0.41622    0.51438   1.00
C6       0.30706    0.32395    0.47821   1.00
H2       0.36564    0.41680    0.53082   1.00
H2       0.28833    0.32020    0.46277   1.00
H2       0.38437    0.38693    0.50979   1.00
H2       0.35645    0.37030    0.47740   1.00
C6       0.40182    0.48972    0.50517   1.00
C6       0.31793    0.26261    0.48358   1.00
H2       0.37309    0.51631    0.50716   1.00
H2       0.26888    0.21789    0.48732   1.00
C6       0.47577    0.53729    0.51335   1.00
C6       0.35357    0.24057    0.46733   1.00
H2       0.40472    0.48448    0.48878   1.00
H2       0.34777    0.27548    0.49756   1.00
C6       0.47542    0.55633    0.53593   1.00
C6       0.30895    0.21104    0.44805   1.00
C6       0.52091    0.50416    0.51092   1.00
C6       0.42428    0.30069    0.46121   1.00
C6       0.50884    0.60450    0.50089   1.00
C6       0.36443    0.18360    0.47654   1.00
H2       0.44306    0.57885    0.53821   1.00
H2       0.25824    0.16917    0.45190   1.00
H2       0.45664    0.51185    0.54574   1.00
H2       0.30272    0.24970    0.44008   1.00
H2       0.52668    0.59320    0.54109   1.00
H2       0.33200    0.19150    0.43742   1.00
H2       0.57353    0.53959    0.51531   1.00
H2       0.45073    0.28369    0.45099   1.00
H2       0.50252    0.45908    0.52049   1.00
H2       0.41918    0.34030    0.45338   1.00
H2       0.52088    0.48895    0.49522   1.00
H2       0.45623    0.32333    0.47456   1.00
H2       0.47926    0.63037    0.50226   1.00
H2       0.31585    0.13951    0.48093   1.00
H2       0.56053    0.63968    0.50614   1.00
H2       0.38883    0.16614    0.46568   1.00
H2       0.51182    0.59455    0.48483   1.00
H2       0.39678    0.20178    0.49000   1.00
C4       0.64355    0.81479    0.51637   1.00
C4       0.69730    0.84251    0.50174   1.00
C3       0.64166    0.77239    0.53263   1.00
C3       0.75636    0.83577    0.50354   1.00
C3       0.58914    0.82940    0.51492   1.00
C3       0.69273    0.87862    0.48458   1.00
C2       0.53664    0.76142    0.54654   1.00
C2       0.80447    0.89566    0.47166   1.00
C3       0.59008    0.74674    0.54732   1.00
C3       0.80821    0.86118    0.48893   1.00
C3       0.53778    0.80260    0.53026   1.00
C3       0.74645    0.90339    0.46998   1.00
H1       0.67732    0.75799    0.53428   1.00
H1       0.76425    0.81272    0.51564   1.00
C5       0.58675    0.86942    0.49841   1.00
C5       0.63589    0.88953    0.48238   1.00
H1       0.59178    0.71668    0.55871   1.00
H1       0.84936    0.85440    0.49107   1.00
H1       0.49851    0.81226    0.52982   1.00
H1       0.74480    0.92890    0.45750   1.00
C6       0.53298    0.89052    0.49824   1.00
C6       0.62808    0.92136    0.46310   1.00
H2       0.52892    0.90743    0.51339   1.00
H2       0.63896    0.89858    0.45011   1.00
H2       0.54910    0.93658    0.48939   1.00
H2       0.57521    0.90690    0.46035   1.00
C6       0.46209    0.83329    0.49019   1.00
C6       0.67278    1.00110    0.46289   1.00
H2       0.45002    0.78436    0.49690   1.00
H2       0.72390    1.01647    0.46850   1.00
C6       0.39922    0.84335    0.49351   1.00
C6       0.68067    1.03832    0.44220   1.00
H2       0.46725    0.82753    0.47394   1.00
H2       0.65120    1.02098    0.47395   1.00
C6       0.38151    0.84108    0.51634   1.00
C6       0.72094    1.02119    0.42651   1.00
C6       0.41123    0.91135    0.48424   1.00
C6       0.61052    1.02030    0.43312   1.00
C6       0.33640    0.78415    0.48281   1.00
C6       0.72144    1.11647    0.44594   1.00
H2       0.37382    0.79413    0.52342   1.00
H2       0.77032    1.03229    0.43259   1.00
H2       0.42190    0.88389    0.52459   1.00
H2       0.69311    0.96758    0.42222   1.00
H2       0.33490    0.84337    0.51841   1.00
H2       0.73026    1.05095    0.41265   1.00
H2       0.36540    0.91559    0.48535   1.00
H2       0.61667    1.05018    0.41948   1.00
H2       0.45199    0.95490    0.49217   1.00
H2       0.58155    0.96661    0.42891   1.00
H2       0.42519    0.91488    0.46827   1.00
H2       0.58054    1.03055    0.44404   1.00
H2       0.32525    0.73486    0.48897   1.00
H2       0.77182    1.13204    0.45217   1.00
H2       0.29097    0.78869    0.48482   1.00
H2       0.72869    1.14477    0.43188   1.00
H2       0.34524    0.78388    0.46655   1.00
H2       0.69487    1.13198    0.45661   1.00
C4       0.18531    0.82892    0.51640   1.00
C4       0.15756    0.85497    0.50178   1.00
C3       0.22878    0.86978    0.53242   1.00
C3       0.16543    0.92128    0.50339   1.00
C3       0.16961    0.75951    0.51516   1.00
C3       0.12029    0.81380    0.48482   1.00
C2       0.23875    0.77540    0.54655   1.00
C2       0.10436    0.90898    0.47171   1.00
C3       0.25447    0.84387    0.54711   1.00
C3       0.13999    0.94771    0.48878   1.00
C3       0.19649    0.73499    0.53049   1.00
C3       0.09553    0.84275    0.47022   1.00
H1       0.24396    0.92008    0.53390   1.00
H1       0.18936    0.95262    0.51534   1.00
C5       0.12846    0.71669    0.49888   1.00
C5       0.10825    0.74557    0.48283   1.00
H1       0.28533    0.87589    0.55833   1.00
H1       0.14760    0.99601    0.49078   1.00
H1       0.18608    0.68581    0.53020   1.00
H1       0.06919    0.81523    0.45789   1.00
C6       0.10628    0.64156    0.49896   1.00
C6       0.07513    0.70529    0.46375   1.00
H2       0.08988    0.62138    0.51421   1.00
H2       0.09766    0.73826    0.45061   1.00
H2       0.05970    0.61174    0.49032   1.00
H2       0.08870    0.66620    0.46106   1.00
C6       0.16242    0.62647    0.49079   1.00
C6       -0.00452   0.67129    0.46385   1.00
H2       0.21186    0.66310    0.49726   1.00
H2       -0.01891   0.70783    0.46941   1.00
C6       0.15139    0.55326    0.49433   1.00
C6       -0.04288   0.64141    0.44334   1.00
H2       0.16755    0.63665    0.47450   1.00
H2       -0.02441   0.63031    0.47507   1.00
C6       0.15446    0.53868    0.51718   1.00
C6       -0.02568   0.69829    0.42745   1.00
C6       0.08262    0.49754    0.48539   1.00
C6       -0.02631   0.58815    0.43435   1.00
C6       0.20953    0.54814    0.48347   1.00
C6       -0.12082   0.60519    0.44740   1.00
H2       0.20199    0.57779    0.52402   1.00
H2       -0.03577   0.73733    0.43347   1.00
H2       0.11235    0.53732    0.52555   1.00
H2       0.02770    0.72319    0.42295   1.00
H2       0.15147    0.48950    0.51939   1.00
H2       -0.05618   0.67756    0.41374   1.00
H2       0.07763    0.44717    0.48664   1.00
H2       -0.05696   0.56411    0.42086   1.00
H2       0.03975    0.49580    0.49345   1.00
H2       0.02714    0.61198    0.42992   1.00
H2       0.07854    0.50740    0.46940   1.00
H2       -0.03662   0.54825    0.44540   1.00
H2       0.25932    0.58604    0.48938   1.00
H2       -0.13538   0.64083    0.45358   1.00
H2       0.20430    0.49794    0.48562   1.00
H2       -0.14988   0.58382    0.43347   1.00
H2       0.20919    0.55660    0.46718   1.00
H2       -0.13639   0.56351    0.45822   1.00
C4       0.36594    0.16777    0.98661   1.00
C4       0.31241    0.13716    1.00125   1.00
C3       0.41860    0.23731    0.98784   1.00
C3       0.31171    0.17171    1.01924   1.00
C3       0.36764    0.12810    0.96998   1.00
C3       0.25710    0.06943    0.99805   1.00
C2       0.47608    0.22880    0.95755   1.00
C2       0.20250    0.07660    1.03039   1.00
C3       0.47222    0.26691    0.97383   1.00
C3       0.25833    0.14260    1.03333   1.00
C3       0.42334    0.16007    0.95610   1.00
C3       0.20355    0.04176    1.01272   1.00
H1       0.41959    0.26924    0.99884   1.00
H1       0.35029    0.21906    1.02287   1.00
C5       0.31449    0.05864    0.96746   1.00
C5       0.25641    0.03104    0.98066   1.00
H1       0.50877    0.31725    0.97561   1.00
H1       0.26072    0.17027    1.04596   1.00
H1       0.42657    0.13340    0.94416   1.00
H1       0.16313    -0.00607   1.01090   1.00
C6       0.32073    0.01521    0.95107   1.00
C6       0.19421    -0.03764   0.97635   1.00
H2       0.37265    0.02400    0.95101   1.00
H2       0.14851    -0.03399   0.97870   1.00
H2       0.29146    -0.03876   0.95473   1.00
H2       0.19009    -0.05057   0.96034   1.00
C6       0.29887    0.02702    0.92958   1.00
C6       0.19228    -0.09711   0.98904   1.00
H2       0.32040    0.08167    0.92697   1.00
H2       0.20623    -0.08069   1.00476   1.00
C6       0.31728    -0.00323   0.91086   1.00
C6       0.12390    -0.16698   0.98928   1.00
H2       0.24367    0.00585    0.92977   1.00
H2       0.23256    -0.10586   0.98333   1.00
C6       0.39548    0.03223    0.90753   1.00
C6       0.06621    -0.16136   1.00019   1.00
C6       0.28804    -0.08109   0.91304   1.00
C6       0.10030    -0.19498   0.96755   1.00
C6       0.28557    0.00915    0.89158   1.00
C6       0.13556    -0.21952   1.00115   1.00
H2       0.41786    0.08744    0.90627   1.00
H2       0.08171    -0.14067   1.01546   1.00
H2       0.42067    0.02207    0.92001   1.00
H2       0.05243    -0.12835   0.99193   1.00
H2       0.40760    0.01415    0.89367   1.00
H2       0.02019    -0.21118   1.00151   1.00
H2       0.29692    -0.10246   0.89931   1.00
H2       0.05535    -0.24586   0.96794   1.00
H2       0.31216    -0.09238   0.92559   1.00
H2       0.08689    -0.16223   0.95896   1.00
H2       0.23322    -0.10714   0.91582   1.00
H2       0.14056    -0.19809   0.95939   1.00
H2       0.30513    0.06355    0.88921   1.00
H2       0.15166    -0.20250   1.01670   1.00
H2       0.29744    -0.01073   0.87804   1.00
H2       0.08900    -0.26915   1.00185   1.00
H2       0.23017    -0.01585   0.89283   1.00
H2       0.17486    -0.22678   0.99394   1.00
C4       0.81554    0.64283    0.98387   1.00
C4       0.84305    0.69622    0.99862   1.00
C3       0.78387    0.64716    0.96569   1.00
C3       0.84727    0.76038    0.99527   1.00
C3       0.81930    0.58239    0.98719   1.00
C3       0.86761    0.68598    1.01752   1.00
C2       0.76288    0.53636    0.95357   1.00
C2       0.89558    0.80301    1.02883   1.00
C3       0.75861    0.59578    0.95094   1.00
C3       0.87239    0.81210    1.00992   1.00
C3       0.79331    0.53141    0.97173   1.00
C3       0.89247    0.73980    1.03209   1.00
H1       0.77735    0.68752    0.96259   1.00
H1       0.83287    0.77221    0.98197   1.00
C5       0.84802    0.57386    1.00559   1.00
C5       0.86733    0.62354    1.02144   1.00
H1       0.73659    0.60210    0.93812   1.00
H1       0.87384    0.85711    1.00660   1.00
H1       0.79549    0.48793    0.97348   1.00
H1       0.90994    0.73425    1.04575   1.00
C6       0.85829    0.51308    1.00794   1.00
C6       0.88664    0.61055    1.04227   1.00
H2       0.87926    0.50582    0.99390   1.00
H2       0.86239    0.62599    1.05374   1.00
H2       0.89868    0.52325    1.01869   1.00
H2       0.86389    0.55635    1.04536   1.00
C6       0.79185    0.44641    1.01449   1.00
C6       0.96564    0.64585    1.04558   1.00
H2       0.74863    0.44104    1.00563   1.00
H2       0.99012    0.69798    1.03974   1.00
C6       0.79216    0.37755    1.01303   1.00
C6       0.99174    0.64882    1.06776   1.00
H2       0.78064    0.45312    1.03016   1.00
H2       0.98474    0.61946    1.03610   1.00
C6       0.79687    0.35857    0.99071   1.00
C6       0.97619    0.69484    1.08158   1.00
C6       0.85148    0.37990    1.02539   1.00
C6       0.96034    0.57681    1.07729   1.00
C6       0.72414    0.31987    1.02193   1.00
C6       1.07035    0.68009    1.06716   1.00
H2       0.75630    0.35758    0.98150   1.00
H2       0.99675    0.74578    1.07509   1.00
H2       0.84547    0.39489    0.98387   1.00
H2       0.92157    0.67356    1.08369   1.00
H2       0.79229    0.30834    0.98975   1.00
H2       0.99869    0.70039    1.09659   1.00
H2       0.84837    0.33022    1.02547   1.00
H2       0.98251    0.57895    1.09217   1.00
H2       0.90067    0.41652    1.01890   1.00
H2       0.90549    0.55432    1.07935   1.00
H2       0.85018    0.39457    1.04107   1.00
H2       0.96933    0.54296    1.06764   1.00
H2       0.68050    0.31555    1.01358   1.00
H2       1.09516    0.73140    1.06074   1.00
H2       0.72173    0.27055    1.02112   1.00
H2       1.09110    0.68366    1.08235   1.00
H2       0.71846    0.32965    1.03781   1.00
H2       1.08454    0.64906    1.05795   1.00
C4       0.82895    0.18532    0.98360   1.00
C4       0.85500    0.15757    0.99822   1.00
C3       0.86985    0.22895    0.96761   1.00
C3       0.92138    0.16560    0.99663   1.00
C3       0.75948    0.16946    0.98481   1.00
C3       0.81375    0.12013    1.01514   1.00
C2       0.77543    0.23877    0.95345   1.00
C2       0.90901    0.10436    1.02829   1.00
C3       0.84394    0.25464    0.95292   1.00
C3       0.94780    0.14015    1.01124   1.00
C3       0.73497    0.19636    0.96948   1.00
C3       0.84271    0.09537    1.02974   1.00
H1       0.92019    0.24424    0.96615   1.00
H1       0.95277    0.18966    0.98470   1.00
C5       0.71660    0.12815    1.00105   1.00
C5       0.74547    0.10793    1.01711   1.00
H1       0.87600    0.28562    0.94172   1.00
H1       0.99615    0.14789    1.00926   1.00
H1       0.68575    0.18584    0.96974   1.00
H1       0.81513    0.06892    1.04206   1.00
C6       0.64143    0.10583    1.00093   1.00
C6       0.70509    0.07462    1.03616   1.00
H2       0.62137    0.08950    0.98567   1.00
H2       0.73796    0.09712    1.04932   1.00
H2       0.61163    0.05917    1.00955   1.00
H2       0.66591    0.08807    1.03884   1.00
C6       0.62614    0.16180    1.00912   1.00
C6       0.67124    -0.00501   1.03601   1.00
H2       0.66274    0.21132    1.00268   1.00
H2       0.70789    -0.01926   1.03046   1.00
C6       0.55289    0.15064    1.00556   1.00
C6       0.64129    -0.04353   1.05649   1.00
H2       0.63621    0.16684    1.02542   1.00
H2       0.63033    -0.02490   1.02477   1.00
C6       0.53844    0.15382    0.98270   1.00
C6       0.69809    -0.02632   1.07241   1.00
C6       0.49721    0.08175    1.01445   1.00
C6       0.58786    -0.02717   1.06547   1.00
C6       0.54756    0.20862    1.01644   1.00
C6       0.60523    -0.12144   1.05239   1.00
H2       0.57752    0.20143    0.97589   1.00
H2       0.73724    -0.03627   1.06640   1.00
H2       0.53723    0.11182    0.97430   1.00
H2       0.72286    0.02702    1.07694   1.00
H2       0.48922    0.15073    0.98047   1.00
H2       0.67732    -0.05693   1.08610   1.00
H2       0.44680    0.07665    1.01318   1.00
H2       0.56378    -0.05793   1.07894   1.00
H2       0.49563    0.03899    1.00637   1.00
H2       0.61156    0.02624    1.06993   1.00
H2       0.50699    0.07760    1.03044   1.00
H2       0.54801    -0.03749   1.05441   1.00
H2       0.58542    0.25848    1.01055   1.00
H2       0.64099    -0.13586   1.04621   1.00
H2       0.49732    0.20329    1.01427   1.00
H2       0.58382    -0.15061   1.06630   1.00
H2       0.55592    0.20819    1.03273   1.00
H2       0.56361    -0.13702   1.04155   1.00
C4       0.49473    0.97657    0.81706   1.00
C4       0.52448    1.03199    0.83112   1.00
C3       0.42464    0.92512    0.81792   1.00
C3       0.48487    1.04382    0.84562   1.00
C3       0.53591    0.97153    0.80148   1.00
C3       0.59649    1.07790    0.83086   1.00
C2       0.43374    0.86632    0.78805   1.00
C2       0.58496    1.14205    0.86021   1.00
C3       0.39488    0.87183    0.80381   1.00
C3       0.51411    1.09692    0.85980   1.00
C3       0.50356    0.91668    0.78734   1.00
C3       0.62430    1.13112    0.84563   1.00
H1       0.39273    0.92406    0.82894   1.00
H1       0.43322    1.01470    0.84629   1.00
C5       0.60742    1.02018    0.80037   1.00
C5       0.63864    1.07030    0.81606   1.00
H1       0.34399    0.83649    0.80520   1.00
H1       0.48279    1.10256    0.86992   1.00
H1       0.53104    0.91165    0.77597   1.00
H1       0.67533    1.16450    0.84602   1.00
C6       0.64878    1.01849    0.78256   1.00
C6       0.71542    1.11466    0.81733   1.00
H2       0.61986    1.01087    0.76864   1.00
H2       0.73125    1.11755    0.83308   1.00
H2       0.69352    1.06807    0.77986   1.00
H2       0.74120    1.09054    0.81015   1.00
C6       0.67169    0.96399    0.78495   1.00
C6       0.74276    1.18730    0.80790   1.00
H2       0.62895    0.91625    0.79055   1.00
H2       0.71059    1.20799    0.81279   1.00
C6       0.70127    0.94704    0.76578   1.00
C6       0.81869    1.24235    0.81231   1.00
H2       0.71002    0.98143    0.79696   1.00
H2       0.73594    1.18125    0.79148   1.00
C6       0.64635    0.91165    0.74906   1.00
C6       0.83031    1.26211    0.83508   1.00
C6       0.76299    1.01179    0.75685   1.00
C6       0.86853    1.21790    0.80562   1.00
C6       0.72607    0.89696    0.77208   1.00
C6       0.83620    1.30772    0.80008   1.00
H2       0.60158    0.86631    0.75498   1.00
H2       0.79509    1.27856    0.84036   1.00
H2       0.62962    0.94562    0.74302   1.00
H2       0.82296    1.21944    0.84449   1.00
H2       0.66612    0.89580    0.73636   1.00
H2       0.88210    1.30380    0.83776   1.00
H2       0.78622    0.99881    0.74440   1.00
H2       0.92144    1.25838    0.80740   1.00
H2       0.74739    1.04682    0.75090   1.00
H2       0.86151    1.17470    0.81474   1.00
H2       0.80182    1.03848    0.76843   1.00
H2       0.86043    1.20231    0.78973   1.00
H2       0.68415    0.84993    0.77831   1.00
H2       0.80285    1.32756    0.80439   1.00
H2       0.74681    0.88321    0.75914   1.00
H2       0.88873    1.34793    0.80276   1.00
H2       0.76597    0.91960    0.78359   1.00
H2       0.83031    1.29736    0.78381   1.00
C4       0.02292    0.51886    0.81689   1.00
C4       -0.03240   0.49359    0.83097   1.00
C3       0.06845    0.49267    0.81587   1.00
C3       -0.05039   0.43578    0.84351   1.00
C3       0.03396    0.57242    0.80320   1.00
C3       -0.07186   0.52671    0.83276   1.00
C2       0.13278    0.56759    0.78775   1.00
C2       -0.14213   0.44447    0.86016   1.00
C3       0.12152    0.51596    0.80170   1.00
C3       -0.10333   0.41208    0.85775   1.00
C3       0.08836    0.59445    0.78892   1.00
C3       -0.12512   0.50121    0.84752   1.00
H1       0.06517    0.45615    0.82554   1.00
H1       -0.02614   0.40831    0.84264   1.00
C5       -0.00842   0.60278    0.80406   1.00
C5       -0.05801   0.58338    0.81994   1.00
H1       0.15241    0.49479    0.80169   1.00
H1       -0.11359   0.37029    0.86639   1.00
H1       0.09753    0.63209    0.77884   1.00
H1       -0.15399   0.52368    0.84933   1.00
C6       -0.00081   0.65424    0.78811   1.00
C6       -0.09528   0.62240    0.82347   1.00
H2       0.00409    0.63600    0.77326   1.00
H2       -0.09689   0.63061    0.83970   1.00
H2       -0.04749   0.65622    0.78629   1.00
H2       -0.06630   0.67442    0.81788   1.00
C6       0.05959    0.72795    0.79250   1.00
C6       -0.16829   0.58717    0.81380   1.00
H2       0.10447    0.72531    0.79725   1.00
H2       -0.19437   0.53244    0.81693   1.00
C6       0.08189    0.78168    0.77500   1.00
C6       -0.21707   0.61424    0.82020   1.00
H2       0.04556    0.74766    0.80565   1.00
H2       -0.16217   0.59160    0.79734   1.00
C6       0.11297    0.76292    0.75686   1.00
C6       -0.23729   0.59984    0.84290   1.00
C6       0.02153    0.78968    0.76740   1.00
C6       -0.18472   0.69166    0.81608   1.00
C6       0.13772    0.85185    0.78327   1.00
C6       -0.28353   0.57646    0.80749   1.00
H2       0.15505    0.75581    0.76179   1.00
H2       -0.25929   0.54570    0.84638   1.00
H2       0.07517    0.71604    0.74951   1.00
H2       -0.19344   0.62827    0.85278   1.00
H2       0.13265    0.80298    0.74537   1.00
H2       -0.27493   0.61458    0.84687   1.00
H2       0.03861    0.83063    0.75624   1.00
H2       -0.22092   0.70903    0.81923   1.00
H2       -0.01724   0.74300    0.76016   1.00
H2       -0.14027   0.72103    0.82570   1.00
H2       -0.00219   0.80150    0.77996   1.00
H2       -0.16871   0.70338    0.80029   1.00
H2       0.18193    0.84919    0.78866   1.00
H2       -0.30884   0.52149    0.81002   1.00
H2       0.15532    0.89108    0.77154   1.00
H2       -0.31951   0.59334    0.81152   1.00
H2       0.11841    0.86857    0.79588   1.00
H2       -0.27276   0.58579    0.79130   1.00
C4       0.48116    0.50408    0.81689   1.00
C4       0.50643    0.47403    0.83097   1.00
C3       0.50721    0.57578    0.81592   1.00
C3       0.56413    0.51386    0.84356   1.00
C3       0.42774    0.46157    0.80316   1.00
C3       0.47345    0.40145    0.83272   1.00
C2       0.43242    0.56520    0.78775   1.00
C2       0.55556    0.41342    0.86016   1.00
C3       0.48391    0.60555    0.80174   1.00
C3       0.58783    0.48462    0.85779   1.00
C3       0.40570    0.49394    0.78888   1.00
C3       0.49895    0.37369    0.84748   1.00
H1       0.54362    0.60900    0.82561   1.00
H1       0.59151    0.56560    0.84271   1.00
C5       0.39751    0.38884    0.80398   1.00
C5       0.41690    0.35862    0.81986   1.00
H1       0.50497    0.65761    0.80177   1.00
H1       0.62953    0.51616    0.86647   1.00
H1       0.36815    0.46547    0.77878   1.00
H1       0.47656    0.32234    0.84926   1.00
C6       0.34622    0.34503    0.78799   1.00
C6       0.37800    0.28231    0.82334   1.00
H2       0.36453    0.36829    0.77316   1.00
H2       0.36969    0.27237    0.83956   1.00
H2       0.34437    0.29643    0.78615   1.00
H2       0.32601    0.25920    0.81772   1.00
C6       0.27242    0.33152    0.79234   1.00
C6       0.41345    0.24474    0.81367   1.00
H2       0.27490    0.37895    0.79711   1.00
H2       0.46815    0.27346    0.81684   1.00
C6       0.21883    0.30010    0.77481   1.00
C6       0.38649    0.16887    0.82003   1.00
H2       0.25268    0.29768    0.80547   1.00
H2       0.40913    0.24652    0.79721   1.00
C6       0.23761    0.35006    0.75669   1.00
C6       0.40076    0.16294    0.84274   1.00
C6       0.21104    0.23187    0.76717   1.00
C6       0.30911    0.12368    0.81586   1.00
C6       0.14854    0.28554    0.78304   1.00
C6       0.42448    0.14041    0.80732   1.00
H2       0.24457    0.39917    0.76164   1.00
H2       0.45486    0.19515    0.84625   1.00
H2       0.28457    0.35929    0.74937   1.00
H2       0.37218    0.17820    0.85261   1.00
H2       0.19764    0.32968    0.74518   1.00
H2       0.38611    0.11056    0.84667   1.00
H2       0.17018    0.20799    0.75599   1.00
H2       0.29184    0.07013    0.81898   1.00
H2       0.25782    0.23994    0.75996   1.00
H2       0.27960    0.13861    0.82547   1.00
H2       0.19921    0.19625    0.77972   1.00
H2       0.29748    0.12804    0.80006   1.00
H2       0.15105    0.33233    0.78845   1.00
H2       0.47943    0.17015    0.80989   1.00
H2       0.10940    0.26392    0.77128   1.00
H2       0.40769    0.08754    0.81132   1.00
H2       0.13180    0.24943    0.79563   1.00
H2       0.41526    0.14194    0.79114   1.00
C4       0.30004    0.15932    0.34643   1.00
C4       0.35305    0.18514    0.33156   1.00
C3       0.25828    0.18895    0.34986   1.00
C3       0.36331    0.23764    0.31767   1.00
C3       0.28767    0.10176    0.35849   1.00
C3       0.39794    0.15795    0.33030   1.00
C2       0.19065    0.10510    0.37580   1.00
C2       0.46230    0.23973    0.30214   1.00
C3       0.20501    0.16256    0.36401   1.00
C3       0.41643    0.26442    0.30346   1.00
C3       0.23268    0.07621    0.37267   1.00
C3       0.45163    0.18690    0.31569   1.00
H1       0.26543    0.23124    0.34234   1.00
H1       0.33215    0.25792    0.31721   1.00
C5       0.32987    0.07151    0.35633   1.00
C5       0.38839    0.10310    0.34331   1.00
H1       0.17657    0.18610    0.36571   1.00
H1       0.42125    0.30244    0.29392   1.00
H1       0.22200    0.03508    0.38142   1.00
H1       0.48486    0.16924    0.31443   1.00
C6       0.31170    0.00635    0.36761   1.00
C6       0.44049    0.07980    0.34330   1.00
H2       0.25694    -0.02844   0.36645   1.00
H2       0.49149    0.12440    0.34322   1.00
H2       0.33189    -0.02249   0.36007   1.00
H2       0.44056    0.05583    0.35758   1.00
C6       0.33622    0.01871    0.39024   1.00
C6       0.43040    0.02982    0.32547   1.00
H2       0.32476    0.05573    0.39715   1.00
H2       0.42035    0.04888    0.31141   1.00
C6       0.30751    -0.04491   0.40455   1.00
C6       0.48942    0.01443    0.32123   1.00
H2       0.39181    0.04338    0.39021   1.00
H2       0.38387    -0.01845   0.32850   1.00
C6       0.22971    -0.07673   0.40805   1.00
C6       0.55479    0.07868    0.31360   1.00
C6       0.32213    -0.10018   0.39612   1.00
C6       0.50684    -0.01382   0.34031   1.00
C6       0.34312    -0.02168   0.42551   1.00
C6       0.46596    -0.04047   0.30431   1.00
H2       0.21756    -0.03869   0.41370   1.00
H2       0.54395    0.10052    0.30032   1.00
H2       0.20107    -0.09798   0.39410   1.00
H2       0.57651    0.11796    0.32525   1.00
H2       0.21107    -0.11801   0.41912   1.00
H2       0.59398    0.06638    0.30935   1.00
H2       0.30630    -0.14208   0.40687   1.00
H2       0.54455    -0.02894   0.33682   1.00
H2       0.29441    -0.12165   0.38203   1.00
H2       0.52806    0.02458    0.35224   1.00
H2       0.37644    -0.07874   0.39312   1.00
H2       0.46136    -0.05827   0.34624   1.00
H2       0.33378    0.01695    0.43225   1.00
H2       0.45369    -0.02274   0.29039   1.00
H2       0.32439    -0.06437   0.43610   1.00
H2       0.50574    -0.05265   0.30071   1.00
H2       0.39817    0.00003    0.42410   1.00
H2       0.42069    -0.08765   0.30896   1.00
C4       0.86523    0.69897    0.34683   1.00
C4       0.84022    0.64708    0.33162   1.00
C3       0.91017    0.70261    0.36253   1.00
C3       0.86390    0.59967    0.32977   1.00
C3       0.84498    0.74950    0.34659   1.00
C3       0.78966    0.64171    0.31756   1.00
C2       0.91850    0.80581    0.37702   1.00
C2       0.78726    0.54004    0.30149   1.00
C3       0.93633    0.75454    0.37712   1.00
C3       0.83807    0.54754    0.31525   1.00
C3       0.87307    0.80175    0.36165   1.00
C3       0.76441    0.58765    0.30307   1.00
H1       0.92505    0.66727    0.36408   1.00
H1       0.90129    0.60167    0.33878   1.00
C5       0.79762    0.74684    0.33166   1.00
C5       0.76592    0.68972    0.31812   1.00
H1       0.96875    0.75446    0.38800   1.00
H1       0.85708    0.51481    0.31475   1.00
H1       0.86025    0.83884    0.36189   1.00
H1       0.72811    0.58188    0.29291   1.00
C6       0.78231    0.80459    0.33025   1.00
C6       0.70733    0.67911    0.30461   1.00
H2       0.82985    0.85300    0.33152   1.00
H2       0.66798    0.62547    0.30500   1.00
H2       0.76524    0.80842    0.31515   1.00
H2       0.68028    0.70341    0.31080   1.00
C6       0.72826    0.79889    0.34616   1.00
C6       0.72995    0.70485    0.28235   1.00
H2       0.73965    0.78513    0.36095   1.00
H2       0.76541    0.68872    0.27702   1.00
C6       0.71959    0.86272    0.34918   1.00
C6       0.67260    0.68311    0.26600   1.00
H2       0.67891    0.75581    0.34178   1.00
H2       0.75957    0.76051    0.28276   1.00
C6       0.78438    0.92345    0.35854   1.00
C6       0.63490    0.60511    0.26211   1.00
C6       0.70238    0.88566    0.32897   1.00
C6       0.62003    0.70468    0.27212   1.00
C6       0.65968    0.84356    0.36413   1.00
C6       0.70605    0.71915    0.24571   1.00
H2       0.79854    0.90858    0.37268   1.00
H2       0.67078    0.58807    0.25808   1.00
H2       0.82768    0.94233    0.34825   1.00
H2       0.60667    0.57662    0.27545   1.00
H2       0.77618    0.96601    0.36189   1.00
H2       0.59834    0.59111    0.24972   1.00
H2       0.69166    0.92704    0.33147   1.00
H2       0.58312    0.69369    0.26000   1.00
H2       0.74491    0.90415    0.31837   1.00
H2       0.59165    0.67717    0.28558   1.00
H2       0.65776    0.84342    0.32184   1.00
H2       0.64542    0.75919    0.27537   1.00
H2       0.66961    0.82763    0.37876   1.00
H2       0.74320    0.70506    0.24059   1.00
H2       0.65190    0.88676    0.36684   1.00
H2       0.66799    0.70519    0.23375   1.00
H2       0.61209    0.80178    0.35817   1.00
H2       0.73236    0.77450    0.24737   1.00
C4       0.83417    0.13500    0.34676   1.00
C4       0.80741    0.16016    0.33156   1.00
C3       0.79215    0.08729    0.36182   1.00
C3       0.73611    0.13411    0.32903   1.00
C3       0.90557    0.15795    0.34717   1.00
C3       0.85295    0.21332    0.31821   1.00
C2       0.88769    0.08154    0.37691   1.00
C2       0.75338    0.21328    0.30147   1.00
C3       0.81791    0.06104    0.37639   1.00
C3       0.70981    0.16001    0.31452   1.00
C3       0.92971    0.12969    0.36219   1.00
C3       0.82412    0.23853    0.30372   1.00
H1       0.74136    0.07033    0.36290   1.00
H1       0.70057    0.09488    0.33750   1.00
C5       0.95086    0.20808    0.33294   1.00
C5       0.92508    0.23962    0.31947   1.00
H1       0.78489    0.02656    0.38679   1.00
H1       0.65789    0.13920    0.31352   1.00
H1       0.98008    0.14439    0.36288   1.00
H1       0.85487    0.27662    0.29406   1.00
C6       1.02495    0.22646    0.33216   1.00
C6       0.97304    0.30068    0.30675   1.00
H2       1.02785    0.17993    0.33308   1.00
H2       0.95662    0.33840    0.30732   1.00
H2       1.04734    0.24598    0.31735   1.00
H2       1.02351    0.32858    0.31350   1.00
C6       1.06997    0.27936    0.34881   1.00
C6       0.97993    0.28156    0.28436   1.00
H2       1.04303    0.26524    0.36332   1.00
H2       0.92949    0.24532    0.27840   1.00
C6       1.14326    0.29066    0.35240   1.00
C6       1.01565    0.34121    0.26871   1.00
H2       1.07466    0.32837    0.34484   1.00
H2       1.00781    0.25375    0.28473   1.00
C6       1.14094    0.22604    0.36125   1.00
C6       0.97324    0.37671    0.26481   1.00
C6       1.18591    0.31182    0.33262   1.00
C6       1.08825    0.39506    0.27574   1.00
C6       1.18037    0.34906    0.36808   1.00
C6       1.02225    0.31125    0.24820   1.00
H2       1.11024    0.20912    0.37506   1.00
H2       0.92131    0.33985    0.26014   1.00
H2       1.11920    0.18399    0.35046   1.00
H2       0.97010    0.40257    0.27835   1.00
H2       1.19200    0.23588    0.36501   1.00
H2       0.99611    0.41499    0.25287   1.00
H2       1.23833    0.32429    0.33558   1.00
H2       1.11450    0.43379    0.26409   1.00
H2       1.16455    0.27058    0.32154   1.00
H2       1.08624    0.42109    0.28941   1.00
H2       1.18716    0.35639    0.32586   1.00
H2       1.11875    0.37115    0.27900   1.00
H2       1.15265    0.33636    0.38244   1.00
H2       0.97221    0.27335    0.24244   1.00
H2       1.23175    0.35858    0.37120   1.00
H2       1.04655    0.35100    0.23671   1.00
H2       1.18485    0.39654    0.36252   1.00
H2       1.05290    0.28665    0.24987   1.00
C4       0.83117    0.68920    0.84997   1.00
C4       0.80343    0.63402    0.83581   1.00
C3       0.79922    0.72833    0.85426   1.00
C3       0.73839    0.60956    0.82659   1.00
C3       0.89326    0.70669    0.86035   1.00
C3       0.84144    0.60138    0.83053   1.00
C2       0.88543    0.79863    0.87933   1.00
C2       0.74874    0.52465    0.80643   1.00
C3       0.82523    0.78117    0.86856   1.00
C3       0.71192    0.55679    0.81227   1.00
C3       0.91786    0.76061    0.87488   1.00
C3       0.81283    0.54807    0.81579   1.00
H1       0.75620    0.72035    0.84702   1.00
H1       0.70751    0.62872    0.83008   1.00
C5       0.92927    0.67101    0.85604   1.00
C5       0.90594    0.62184    0.83995   1.00
H1       0.79962    0.80728    0.87102   1.00
H1       0.66481    0.54169    0.80611   1.00
H1       0.96159    0.77423    0.88266   1.00
H1       0.83853    0.52394    0.81154   1.00
C6       0.99085    0.68512    0.86866   1.00
C6       0.94884    0.59192    0.83264   1.00
H2       0.97971    0.68791    0.88459   1.00
H2       0.94840    0.59089    0.81612   1.00
H2       0.99939    0.64197    0.86867   1.00
H2       1.00267    0.62564    0.83580   1.00
C6       1.05790    0.75048    0.86172   1.00
C6       0.92622    0.51985    0.84183   1.00
H2       1.04724    0.79177    0.85882   1.00
H2       0.87064    0.48858    0.84137   1.00
C6       1.12100    0.77860    0.87623   1.00
C6       0.95643    0.47760    0.83208   1.00
H2       1.07260    0.73943    0.84704   1.00
H2       0.93940    0.52667    0.85793   1.00
C6       1.10812    0.80582    0.89636   1.00
C6       0.93101    0.45618    0.80999   1.00
C6       1.14065    0.72367    0.88105   1.00
C6       1.03542    0.51760    0.83227   1.00
C6       1.18272    0.83912    0.86556   1.00
C6       0.93212    0.41142    0.84465   1.00
H2       1.09304    0.84394    0.89346   1.00
H2       0.87537    0.42877    0.80929   1.00
H2       1.06798    0.76498    0.90527   1.00
H2       0.94986    0.50024    0.80000   1.00
H2       1.15393    0.82957    0.90575   1.00
H2       0.94849    0.42285    0.80382   1.00
H2       1.18751    0.74511    0.88996   1.00
H2       1.05591    0.48597    0.82678   1.00
H2       1.10076    0.68195    0.88980   1.00
H2       1.05531    0.56235    0.82250   1.00
H2       1.14861    0.70263    0.86711   1.00
H2       1.05465    0.53453    0.84759   1.00
H2       1.17175    0.87977    0.86200   1.00
H2       0.87653    0.38085    0.84482   1.00
H2       1.22805    0.86085    0.87517   1.00
H2       0.95158    0.37989    0.83833   1.00
H2       1.19524    0.82281    0.85141   1.00
H2       0.94968    0.42318    0.86032   1.00
C4       0.30154    0.13432    0.84700   1.00
C4       0.35549    0.15750    0.83249   1.00
C3       0.24191    0.13907    0.84361   1.00
C3       0.35048    0.18035    0.81277   1.00
C3       0.30660    0.10522    0.86572   1.00
C3       0.41715    0.15810    0.83763   1.00
C2       0.19091    0.08441    0.87590   1.00
C2       0.46583    0.20753    0.80349   1.00
C3       0.18807    0.11461    0.85755   1.00
C3       0.40401    0.20494    0.79872   1.00
C3       0.25048    0.08057    0.87946   1.00
C3       0.47059    0.18389    0.82293   1.00
H1       0.23566    0.16110    0.83098   1.00
H1       0.30748    0.17934    0.80780   1.00
C5       0.36663    0.10167    0.87036   1.00
C5       0.42410    0.13305    0.85694   1.00
H1       0.14633    0.11930    0.85417   1.00
H1       0.39729    0.22094    0.78478   1.00
H1       0.25198    0.05914    0.89286   1.00
H1       0.51537    0.18557    0.82608   1.00
C6       0.36827    0.06427    0.88920   1.00
C6       0.49210    0.14072    0.86300   1.00
H2       0.32000    0.01661    0.89051   1.00
H2       0.53264    0.19168    0.85892   1.00
H2       0.40424    0.04601    0.88767   1.00
H2       0.49769    0.14123    0.87938   1.00
C6       0.38531    0.10825    0.90898   1.00
C6       0.50466    0.08409    0.85380   1.00
H2       0.35623    0.13489    0.90916   1.00
H2       0.48960    0.07631    0.83784   1.00
C6       0.37362    0.07063    0.92978   1.00
C6       0.57854    0.09516    0.85524   1.00
H2       0.43874    0.14841    0.90812   1.00
H2       0.46981    0.03601    0.86130   1.00
C6       0.29690    0.02004    0.93369   1.00
C6       0.62974    0.15665    0.84220   1.00
C6       0.41374    0.03187    0.93107   1.00
C6       0.60417    0.10584    0.87745   1.00
C6       0.39948    0.12460    0.94701   1.00
C6       0.57762    0.03055    0.84692   1.00
H2       0.26698    0.04563    0.93255   1.00
H2       0.61252    0.15119    0.82649   1.00
H2       0.27634    -0.02177   0.92282   1.00
H2       0.63610    0.20452    0.84799   1.00
H2       0.28883    -0.00237   0.94880   1.00
H2       0.67998    0.16105    0.84217   1.00
H2       0.40917    0.00993    0.94613   1.00
H2       0.65361    0.10862    0.87844   1.00
H2       0.39434    -0.00984   0.92016   1.00
H2       0.61023    0.15325    0.88360   1.00
H2       0.46773    0.06606    0.92796   1.00
H2       0.56828    0.06392    0.88704   1.00
H2       0.37221    0.15301    0.94691   1.00
H2       0.56052    0.02108    0.83116   1.00
H2       0.39197    0.10070    0.96189   1.00
H2       0.62830    0.03601    0.84748   1.00
H2       0.45379    0.16107    0.94533   1.00
H2       0.54335    -0.01448   0.85577   1.00
C4       0.86517    0.16615    0.84681   1.00
C4       0.84217    0.19682    0.83221   1.00
C3       0.85232    0.09807    0.84478   1.00
C3       0.81110    0.16430    0.81357   1.00
C3       0.90245    0.20422    0.86422   1.00
C3       0.85023    0.26256    0.83614   1.00
C2       0.91455    0.10520    0.87581   1.00
C2       0.79260    0.25731    0.80312   1.00
C3       0.87648    0.06853    0.85876   1.00
C3       0.78672    0.19335    0.79949   1.00
C3       0.92649    0.17240    0.87804   1.00
C3       0.82437    0.29022    0.82147   1.00
H1       0.82432    0.06715    0.83317   1.00
H1       0.80562    0.11857    0.80942   1.00
C5       0.91451    0.27197    0.86753   1.00
C5       0.88369    0.29905    0.85426   1.00
H1       0.86572    0.01930    0.85639   1.00
H1       0.76456    0.16718    0.78636   1.00
H1       0.95357    0.19800    0.89052   1.00
H1       0.82873    0.33663    0.82378   1.00
C6       0.96014    0.31423    0.88481   1.00
C6       0.88538    0.36515    0.85924   1.00
H2       1.00501    0.30831    0.88526   1.00
H2       0.83526    0.35905    0.85632   1.00
H2       0.98281    0.36854    0.88191   1.00
H2       0.89094    0.37552    0.87544   1.00
C6       0.92263    0.29719    0.90580   1.00
C6       0.94301    0.42827    0.84773   1.00
H2       0.89152    0.24190    0.90755   1.00
H2       0.94412    0.41486    0.83186   1.00
C6       0.96763    0.32624    0.92529   1.00
C6       0.94026    0.49598    0.84813   1.00
H2       0.88636    0.31565    0.90542   1.00
H2       0.99190    0.43872    0.85404   1.00
C6       1.01321    0.29395    0.92875   1.00
C6       0.87734    0.48856    0.83650   1.00
C6       1.01318    0.40484    0.92433   1.00
C6       0.93940    0.51969    0.87011   1.00
C6       0.91982    0.30838    0.94394   1.00
C6       1.00502    0.55265    0.83744   1.00
H2       0.98266    0.23836    0.92917   1.00
H2       0.87586    0.47079    0.82100   1.00
H2       1.05103    0.30800    0.91678   1.00
H2       0.82988    0.45243    0.84393   1.00
H2       1.04081    0.31094    0.94308   1.00
H2       0.87840    0.53721    0.83566   1.00
H2       1.04066    0.42504    0.93855   1.00
H2       0.94241    0.56934    0.87024   1.00
H2       1.05101    0.42000    0.91228   1.00
H2       0.89251    0.48380    0.87789   1.00
H2       0.98246    0.42878    0.92147   1.00
H2       0.98242    0.52395    0.87877   1.00
H2       0.88696    0.25327    0.94545   1.00
H2       1.00774    0.53873    0.82175   1.00
H2       0.94896    0.32726    0.95798   1.00
H2       1.00523    0.60096    0.83722   1.00
H2       0.88723    0.33096    0.94259   1.00
H2       1.05123    0.56127    0.84521   1.00
C4       0.02268    0.50332    0.31680   1.00
C4       -0.03137   0.47711    0.33133   1.00
C3       0.03038    0.46079    0.30237   1.00
C3       -0.08541   0.40803    0.33109   1.00
C3       0.07141    0.57465    0.31648   1.00
C3       -0.03229   0.52094    0.34679   1.00
C2       0.12999    0.55675    0.28676   1.00
C2       -0.13889   0.42317    0.36131   1.00
C3       0.08214    0.48661    0.28773   1.00
C3       -0.13740   0.38168    0.34566   1.00
C3       0.12314    0.59896    0.30125   1.00
C3       -0.08594   0.49201    0.36141   1.00
H1       -0.00093   0.40936    0.30209   1.00
H1       -0.08941   0.37444    0.32020   1.00
C5       0.06799    0.61958    0.33116   1.00
C5       0.01915    0.59166    0.34731   1.00
H1       0.08477    0.45330    0.27770   1.00
H1       -0.17476   0.33134    0.34470   1.00
H1       0.15844    0.64942    0.30045   1.00
H1       -0.08807   0.52144    0.37271   1.00
C6       0.11535    0.69579    0.32931   1.00
C6       0.02170    0.63565    0.36496   1.00
H2       0.11751    0.71067    0.31348   1.00
H2       0.01400    0.60744    0.37903   1.00
H2       0.09421    0.72427    0.33654   1.00
H2       0.07264    0.67892    0.36715   1.00
C6       0.18828    0.72032    0.33814   1.00
C6       -0.03000   0.66223    0.36285   1.00
H2       0.20595    0.68565    0.33324   1.00
H2       -0.07931   0.62069    0.35773   1.00
C6       0.24563    0.79478    0.33308   1.00
C6       -0.04278   0.69512    0.38202   1.00
H2       0.18364    0.71495    0.35462   1.00
H2       -0.01204   0.69968    0.35058   1.00
C6       0.26320    0.80380    0.31013   1.00
C6       -0.07864   0.64205    0.39917   1.00
C6       0.22552    0.84798    0.33974   1.00
C6       0.02446    0.75543    0.39027   1.00
C6       0.31121    0.80987    0.34480   1.00
C6       -0.09048   0.72309    0.37596   1.00
H2       0.27655    0.76622    0.30488   1.00
H2       -0.12578   0.59825    0.39373   1.00
H2       0.22049    0.79804    0.30104   1.00
H2       -0.04610   0.62331    0.40504   1.00
H2       0.30637    0.85437    0.30698   1.00
H2       -0.09157   0.66429    0.41189   1.00
H2       0.26767    0.89984    0.33748   1.00
H2       0.01448    0.78105    0.40271   1.00
H2       0.18235    0.84261    0.33094   1.00
H2       0.05808    0.73779    0.39604   1.00
H2       0.21152    0.84180    0.35575   1.00
H2       0.05145    0.79288    0.37837   1.00
H2       0.32805    0.77408    0.34048   1.00
H2       -0.13912   0.68230    0.37021   1.00
H2       0.35299    0.86128    0.34164   1.00
H2       -0.10131   0.74622    0.38891   1.00
H2       0.30244    0.80568    0.36114   1.00
H2       -0.06735   0.76188    0.36416   1.00
C4       0.48139    0.97693    0.31694   1.00
C4       0.50913    1.03071    0.33156   1.00
C3       0.43821    0.97451    0.30085   1.00
C3       0.50157    1.08933    0.32990   1.00
C3       0.49679    0.92302    0.31824   1.00
C3       0.54608    1.02662    0.34858   1.00
C2       0.42797    0.86998    0.28678   1.00
C2       0.56232    1.13791    0.36164   1.00
C3       0.41253    0.92292    0.28616   1.00
C3       0.52700    1.14119    0.34451   1.00
C3       0.46993    0.87163    0.30291   1.00
C3       0.57085    1.08034    0.36317   1.00
H1       0.42324    1.00979    0.29932   1.00
H1       0.47788    1.09687    0.31790   1.00
C5       0.53763    0.92115    0.33458   1.00
C5       0.55782    0.97026    0.35063   1.00
H1       0.38189    0.92423    0.27489   1.00
H1       0.51962    1.18200    0.34247   1.00
H1       0.48014    0.83272    0.30324   1.00
H1       0.59696    1.07902    0.37555   1.00
C6       0.55951    0.86797    0.33457   1.00
C6       0.59058    0.96291    0.36976   1.00
H2       0.57606    0.86412    0.31935   1.00
H2       0.56798    0.97347    0.38286   1.00
H2       0.60595    0.88455    0.34327   1.00
H2       0.57676    0.91020    0.37247   1.00
C6       0.50307    0.79684    0.34271   1.00
C6       0.67026    1.00831    0.36975   1.00
H2       0.45377    0.78423    0.33617   1.00
H2       0.68492    1.05929    0.36417   1.00
C6       0.51384    0.73446    0.33923   1.00
C6       0.70830    1.01662    0.39030   1.00
H2       0.49777    0.80191    0.35899   1.00
H2       0.69015    0.98708    0.35857   1.00
C6       0.51099    0.71680    0.31638   1.00
C6       0.69112    1.05646    0.40614   1.00
C6       0.58240    0.74723    0.34826   1.00
C6       0.69134    0.94670    0.39932   1.00
C6       0.45541    0.67133    0.35005   1.00
C6       0.78630    1.05808    0.38633   1.00
H2       0.46362    0.70858    0.30948   1.00
H2       0.70149    1.10567    0.40011   1.00
H2       0.55329    0.75745    0.30804   1.00
H2       0.63768    1.02816    0.41058   1.00
H2       0.51379    0.67049    0.31421   1.00
H2       0.72142    1.06611    0.41989   1.00
H2       0.58719    0.70173    0.34705   1.00
H2       0.72177    0.95319    0.41285   1.00
H2       0.62546    0.78826    0.34023   1.00
H2       0.63782    0.91726    0.40369   1.00
H2       0.58632    0.76117    0.36425   1.00
H2       0.70163    0.91701    0.38831   1.00
H2       0.40575    0.65963    0.34406   1.00
H2       0.80115    1.10833    0.38013   1.00
H2       0.46044    0.62622    0.34793   1.00
H2       0.81515    1.06565    0.40030   1.00
H2       0.45558    0.68013    0.36633   1.00
H2       0.80186    1.03185    0.37555   1.00
C4       0.49559    0.51864    0.31693   1.00
C4       0.52164    0.49089    0.33155   1.00
C3       0.53644    0.56209    0.30090   1.00
C3       0.58794    0.49874    0.32994   1.00
C3       0.42619    0.50296    0.31818   1.00
C3       0.48047    0.45364    0.34851   1.00
C2       0.44207    0.57207    0.28678   1.00
C2       0.57565    0.43769    0.36162   1.00
C3       0.51053    0.58777    0.28621   1.00
C3       0.61436    0.47329    0.34454   1.00
C3       0.40167    0.52984    0.30285   1.00
C3       0.50943    0.42888    0.36311   1.00
H1       0.58674    0.57725    0.29942   1.00
H1       0.61927    0.52264    0.31798   1.00
C5       0.38337    0.46183    0.33446   1.00
C5       0.41226    0.44162    0.35051   1.00
H1       0.54255    0.61862    0.27499   1.00
H1       0.66266    0.48089    0.34254   1.00
H1       0.35249    0.51944    0.30314   1.00
H1       0.48191    0.40256    0.37545   1.00
C6       0.30824    0.43968    0.33438   1.00
C6       0.37198    0.40853    0.36959   1.00
H2       0.28805    0.42326    0.31914   1.00
H2       0.40497    0.43107    0.38273   1.00
H2       0.27842    0.39310    0.34303   1.00
H2       0.33292    0.42212    0.37229   1.00
C6       0.29319    0.49584    0.34255   1.00
C6       0.33796    0.32887    0.36950   1.00
H2       0.32983    0.54527    0.33607   1.00
H2       0.37449    0.31447    0.36394   1.00
C6       0.21998    0.48483    0.33902   1.00
C6       0.30810    0.29054    0.39001   1.00
H2       0.30338    0.50098    0.35885   1.00
H2       0.29697    0.30899    0.35828   1.00
C6       0.20539    0.48788    0.31617   1.00
C6       0.36499    0.30774    0.40590   1.00
C6       0.16425    0.41607    0.34797   1.00
C6       0.25486    0.30714    0.39901   1.00
C6       0.21489    0.54299    0.34988   1.00
C6       0.27185    0.21260    0.38596   1.00
H2       0.24449    0.53540    0.30932   1.00
H2       0.40401    0.29762    0.39988   1.00
H2       0.20400    0.44576    0.30779   1.00
H2       0.38990    0.36112    0.41040   1.00
H2       0.15621    0.48490    0.31396   1.00
H2       0.34426    0.27725    0.41961   1.00
H2       0.11389    0.41109    0.34672   1.00
H2       0.23083    0.27650    0.41250   1.00
H2       0.16250    0.37319    0.33991   1.00
H2       0.27870    0.36059    0.40343   1.00
H2       0.17413    0.41200    0.36396   1.00
H2       0.21495    0.29683    0.38796   1.00
H2       0.25280    0.59277    0.34395   1.00
H2       0.30748    0.19801    0.37977   1.00
H2       0.16469    0.53777    0.34773   1.00
H2       0.25049    0.18355    0.39989   1.00
H2       0.22336    0.54266    0.36616   1.00
H2       0.23016    0.19702    0.37514   1.00
C4       0.16137    0.30990    0.15041   1.00
C4       0.19111    0.36532    0.16446   1.00
C3       0.09132    0.25836    0.15129   1.00
C3       0.15153    0.37705    0.17900   1.00
C3       0.20252    0.30496    0.13479   1.00
C3       0.26310    0.41134    0.16417   1.00
C2       0.10039    0.19964    0.12139   1.00
C2       0.25160    0.47539    0.19355   1.00
C3       0.06156    0.20506    0.13718   1.00
C3       0.18076    0.43016    0.19318   1.00
C3       0.17016    0.25010    0.12066   1.00
C3       0.29092    0.46455    0.17894   1.00
H1       0.05945    0.25723    0.16234   1.00
H1       0.09988    0.34785    0.17969   1.00
C5       0.27399    0.35370    0.13365   1.00
C5       0.30523    0.40384    0.14934   1.00
H1       0.01070    0.16966    0.13860   1.00
H1       0.14945    0.43572    0.20331   1.00
H1       0.19762    0.24513    0.10926   1.00
H1       0.34193    0.49801    0.17930   1.00
C6       0.31529    0.35211    0.11581   1.00
C6       0.38201    0.44831    0.15057   1.00
H2       0.28628    0.34444    0.10191   1.00
H2       0.39793    0.45123    0.16631   1.00
H2       0.35997    0.40173    0.11310   1.00
H2       0.40782    0.42428    0.14337   1.00
C6       0.33836    0.29771    0.11817   1.00
C6       0.40916    0.52094    0.14115   1.00
H2       0.29571    0.24993    0.12378   1.00
H2       0.37694    0.54153    0.14607   1.00
C6       0.36790    0.28085    0.09897   1.00
C6       0.48508    0.57609    0.14552   1.00
H2       0.37677    0.31521    0.13016   1.00
H2       0.40226    0.51488    0.12473   1.00
C6       0.31290    0.24538    0.08228   1.00
C6       0.49680    0.59585    0.16830   1.00
C6       0.42949    0.34566    0.09002   1.00
C6       0.53499    0.55176    0.13879   1.00
C6       0.39286    0.23087    0.10524   1.00
C6       0.50241    0.64142    0.13330   1.00
H2       0.26821    0.19999    0.08821   1.00
H2       0.46154    0.61221    0.17361   1.00
H2       0.29604    0.27929    0.07626   1.00
H2       0.48959    0.55320    0.17770   1.00
H2       0.33265    0.22960    0.06956   1.00
H2       0.54857    0.63760    0.17096   1.00
H2       0.45271    0.33275    0.07755   1.00
H2       0.58788    0.59232    0.14056   1.00
H2       0.41377    0.38062    0.08409   1.00
H2       0.52810    0.50860    0.14790   1.00
H2       0.46838    0.37240    0.10159   1.00
H2       0.52682    0.53618    0.12291   1.00
H2       0.35104    0.18381    0.11148   1.00
H2       0.46900    0.66117    0.13765   1.00
H2       0.41358    0.21718    0.09228   1.00
H2       0.55491    0.68170    0.13597   1.00
H2       0.43283    0.25357    0.11672   1.00
H2       0.49643    0.63107    0.11704   1.00
C4       0.69835    0.86575    0.15296   1.00
C4       0.64652    0.84114    0.16819   1.00
C3       0.69674    0.90249    0.13562   1.00
C3       0.59348    0.85762    0.16826   1.00
C3       0.75425    0.85355    0.15488   1.00
C3       0.64701    0.79843    0.18409   1.00
C2       0.80485    0.91846    0.12266   1.00
C2       0.53977    0.78868    0.19841   1.00
C3       0.74847    0.92838    0.12097   1.00
C3       0.54149    0.83198    0.18283   1.00
C3       0.80608    0.88111    0.13968   1.00
C3       0.59293    0.77307    0.19857   1.00
H1       0.65758    0.91123    0.13288   1.00
H1       0.59101    0.88943    0.15784   1.00
C5       0.75720    0.81443    0.17156   1.00
C5       0.70069    0.78240    0.18530   1.00
H1       0.74445    0.95469    0.10886   1.00
H1       0.50455    0.84557    0.18200   1.00
H1       0.84686    0.87390    0.14060   1.00
H1       0.59126    0.74219    0.21002   1.00
C6       0.82010    0.80811    0.17457   1.00
C6       0.69665    0.73140    0.20089   1.00
H2       0.86534    0.85783    0.17222   1.00
H2       0.64489    0.68804    0.20118   1.00
H2       0.82615    0.79790    0.19031   1.00
H2       0.72574    0.70740    0.19625   1.00
C6       0.82094    0.75201    0.16084   1.00
C6       0.72084    0.76313    0.22253   1.00
H2       0.80512    0.75580    0.14546   1.00
H2       0.69935    0.79568    0.22612   1.00
C6       0.88949    0.75112    0.15928   1.00
C6       0.70487    0.71283    0.24070   1.00
H2       0.78154    0.70235    0.16644   1.00
H2       0.77596    0.79749    0.22189   1.00
C6       0.94566    0.81563    0.14842   1.00
C6       0.62713    0.66933    0.24475   1.00
C6       0.91569    0.74494    0.18044   1.00
C6       0.73425    0.66488    0.23711   1.00
C6       0.87683    0.68821    0.14652   1.00
C6       0.73861    0.75521    0.26012   1.00
H2       0.92831    0.82206    0.13355   1.00
H2       0.60462    0.70170    0.24702   1.00
H2       0.96013    0.86157    0.15722   1.00
H2       0.60066    0.63507    0.23215   1.00
H2       0.99166    0.81234    0.14615   1.00
H2       0.61678    0.63790    0.25828   1.00
H2       0.96075    0.73945    0.17909   1.00
H2       0.72713    0.63343    0.25044   1.00
H2       0.92983    0.79022    0.18957   1.00
H2       0.70884    0.63058    0.22441   1.00
H2       0.87655    0.70069    0.18858   1.00
H2       0.78870    0.69422    0.23380   1.00
H2       0.85889    0.69042    0.13132   1.00
H2       0.71905    0.78952    0.26348   1.00
H2       0.92345    0.68560    0.14488   1.00
H2       0.72849    0.72227    0.27329   1.00
H2       0.83856    0.64087    0.15363   1.00
H2       0.79382    0.78605    0.25836   1.00
C4       0.13500    0.83418    0.15324   1.00
C4       0.16016    0.80742    0.16844   1.00
C3       0.08726    0.79215    0.13819   1.00
C3       0.13409    0.73612    0.17098   1.00
C3       0.15799    0.90559    0.15282   1.00
C3       0.21336    0.85296    0.18178   1.00
C2       0.08154    0.88769    0.12309   1.00
C2       0.21329    0.75339    0.19854   1.00
C3       0.06101    0.81791    0.12362   1.00
C3       0.15998    0.70982    0.18549   1.00
C3       0.12972    0.92973    0.13780   1.00
C3       0.23857    0.82413    0.19627   1.00
H1       0.07027    0.74135    0.13712   1.00
H1       0.09483    0.70058    0.16252   1.00
C5       0.20815    0.95088    0.16704   1.00
C5       0.23969    0.92510    0.18052   1.00
H1       0.02650    0.78488    0.11323   1.00
H1       0.13916    0.65789    0.18650   1.00
H1       0.14445    0.98009    0.13711   1.00
H1       0.27668    0.85488    0.20593   1.00
C6       0.22657    1.02499    0.16782   1.00
C6       0.30078    0.97306    0.19322   1.00
H2       0.18005    1.02791    0.16690   1.00
H2       0.33848    0.95660    0.19265   1.00
H2       0.24612    1.04739    0.18262   1.00
H2       0.32869    1.02351    0.18647   1.00
C6       0.27945    1.06996    0.15116   1.00
C6       0.28171    0.97999    0.21561   1.00
H2       0.26530    1.04300    0.13665   1.00
H2       0.24546    0.92957    0.22158   1.00
C6       0.29079    1.14326    0.14755   1.00
C6       0.34139    1.01571    0.23126   1.00
H2       0.32846    1.07462    0.15512   1.00
H2       0.25392    1.00790    0.21525   1.00
C6       0.22617    1.14096    0.13872   1.00
C6       0.37686    0.97327    0.23515   1.00
C6       0.31200    1.18594    0.16733   1.00
C6       0.39525    1.08829    0.22421   1.00
C6       0.34917    1.18032    0.13187   1.00
C6       0.31148    1.02236    0.25176   1.00
H2       0.20922    1.11023    0.12491   1.00
H2       0.33999    0.92136    0.23983   1.00
H2       0.18414    1.11925    0.14951   1.00
H2       0.40269    0.97009    0.22162   1.00
H2       0.23603    1.19202    0.13494   1.00
H2       0.41517    0.99614    0.24709   1.00
H2       0.32450    1.23836    0.16437   1.00
H2       0.43401    1.11454    0.23586   1.00
H2       0.27078    1.16462    0.17841   1.00
H2       0.42125    1.08624    0.21054   1.00
H2       0.35657    1.18717    0.17409   1.00
H2       0.37137    1.11881    0.22095   1.00
H2       0.33643    1.15258    0.11752   1.00
H2       0.27357    0.97234    0.25753   1.00
H2       0.35871    1.23171    0.12874   1.00
H2       0.35124    1.04667    0.26325   1.00
H2       0.39665    1.18478    0.13742   1.00
H2       0.28689    1.05304    0.25009   1.00
C4       0.97742    0.49702    0.68323   1.00
C4       1.03262    0.52730    0.66912   1.00
C3       0.93736    0.42510    0.68599   1.00
C3       1.05615    0.48846    0.65835   1.00
C3       0.96085    0.53948    0.69516   1.00
C3       1.06623    0.59913    0.66546   1.00
C2       0.86792    0.43586    0.71249   1.00
C2       1.14204    0.58796    0.63982   1.00
C3       0.88449    0.39535    0.70023   1.00
C3       1.10895    0.51768    0.64407   1.00
C3       0.90686    0.50719    0.70958   1.00
C3       1.11953    0.62684    0.65071   1.00
H1       0.94466    0.39160    0.67760   1.00
H1       1.03627    0.43759    0.66063   1.00
C5       0.99749    0.61205    0.69247   1.00
C5       1.04671    0.64132    0.67646   1.00
H1       0.85770    0.34318    0.70153   1.00
H1       1.12336    0.48684    0.63675   1.00
H1       0.89388    0.53569    0.71844   1.00
H1       1.14434    0.67761    0.64759   1.00
C6       0.98432    0.65678    0.70666   1.00
C6       1.07767    0.71588    0.67090   1.00
H2       0.98127    0.63879    0.72217   1.00
H2       1.07874    0.72064    0.65444   1.00
H2       1.02800    0.70805    0.70756   1.00
H2       1.04461    0.73582    0.67516   1.00
C6       0.91960    0.66128    0.70079   1.00
C6       1.14996    0.76211    0.68044   1.00
H2       0.87776    0.61046    0.69697   1.00
H2       1.18052    0.73730    0.67879   1.00
C6       0.89232    0.69320    0.71670   1.00
C6       1.19313    0.83672    0.67224   1.00
H2       0.93103    0.69070    0.68676   1.00
H2       1.14327    0.76452    0.69677   1.00
C6       0.86459    0.64824    0.73598   1.00
C6       1.21434    0.83797    0.64980   1.00
C6       0.94806    0.76607    0.72290   1.00
C6       1.15418    0.87650    0.67420   1.00
C6       0.83238    0.69808    0.70702   1.00
C6       1.25943    0.87457    0.68502   1.00
H2       0.82587    0.59611    0.73209   1.00
H2       1.24100    0.80934    0.64785   1.00
H2       0.90505    0.64604    0.74426   1.00
H2       1.17025    0.81585    0.63976   1.00
H2       0.84141    0.66839    0.74635   1.00
H2       1.24828    0.89007    0.64466   1.00
H2       0.92725    0.78969    0.73286   1.00
H2       1.18646    0.92977    0.66980   1.00
H2       0.98942    0.76503    0.73104   1.00
H2       1.10941    0.85470    0.66440   1.00
H2       0.96946    0.79841    0.70956   1.00
H2       1.13741    0.87519    0.68979   1.00
H2       0.79120    0.64775    0.70255   1.00
H2       1.28928    0.84890    0.68398   1.00
H2       0.81125    0.71970    0.71763   1.00
H2       1.29160    0.92692    0.67976   1.00
H2       0.84909    0.73037    0.69354   1.00
H2       1.24784    0.87662    0.70098   1.00
C4       0.51881    0.02294    0.68311   1.00
C4       0.49353    -0.03238   0.66902   1.00
C3       0.49300    0.06879    0.68402   1.00
C3       0.43602    -0.05004   0.65637   1.00
C3       0.57202    0.03366    0.69690   1.00
C3       0.52631    -0.07219   0.66735   1.00
C2       0.56758    0.13282    0.71224   1.00
C2       0.44439    -0.14213   0.63984   1.00
C3       0.51630    0.12188    0.69819   1.00
C3       0.41232    -0.10299   0.64215   1.00
C3       0.59407    0.08808    0.71117   1.00
C3       0.50081    -0.12545   0.65259   1.00
H1       0.45676    0.06575    0.67428   1.00
H1       0.40879    -0.02553   0.65717   1.00
C5       0.60202    -0.00906   0.69614   1.00
C5       0.58265    -0.05868   0.68027   1.00
H1       0.49541    0.15301    0.69812   1.00
H1       0.37076    -0.11300   0.63342   1.00
H1       0.63147    0.09703    0.72131   1.00
H1       0.52305    -0.15457   0.65085   1.00
C6       0.65305    -0.00177   0.71219   1.00
C6       0.62135    -0.09632   0.67686   1.00
H2       0.63464    0.00325    0.72700   1.00
H2       0.62982    -0.09799   0.66065   1.00
H2       0.65469    -0.04862   0.71407   1.00
H2       0.67329    -0.06760   0.68254   1.00
C6       0.72700    0.05834    0.70790   1.00
C6       0.58558    -0.16935   0.68653   1.00
H2       0.72476    0.10339    0.70311   1.00
H2       0.53092    -0.19515   0.68331   1.00
C6       0.78037    0.08034    0.72549   1.00
C6       0.61235    -0.21847   0.68024   1.00
H2       0.74679    0.04414    0.69481   1.00
H2       0.58973    -0.16325   0.70300   1.00
C6       0.76155    0.11164    0.74357   1.00
C6       0.59829    -0.23864   0.65752   1.00
C6       0.78781    0.01973    0.73318   1.00
C6       0.68966    -0.18652   0.68449   1.00
C6       0.85084    0.13590    0.71732   1.00
C6       0.57403    -0.28490   0.69293   1.00
H2       0.75483    0.15391    0.73858   1.00
H2       0.54425    -0.26035   0.65395   1.00
H2       0.71445    0.07402    0.75085   1.00
H2       0.62709    -0.19483   0.64766   1.00
H2       0.80139    0.13111    0.75512   1.00
H2       0.61280    -0.27650   0.65363   1.00
H2       0.82853    0.03659    0.74440   1.00
H2       0.70678    -0.22295   0.68142   1.00
H2       0.74089    -0.01887   0.74036   1.00
H2       0.71939    -0.14211   0.67489   1.00
H2       0.79966    -0.00414   0.72066   1.00
H2       0.70115    -0.17055   0.70029   1.00
H2       0.84857    0.18028    0.71188   1.00
H2       0.51912    -0.30993   0.69032   1.00
H2       0.88983    0.15329    0.72912   1.00
H2       0.59069    -0.32111   0.68898   1.00
H2       0.86761    0.11643    0.70477   1.00
H2       0.58309    -0.27417   0.70913   1.00
C4       0.50408    0.48116    0.68311   1.00
C4       0.47403    0.50643    0.66903   1.00
C3       0.57578    0.50722    0.68409   1.00
C3       0.51386    0.56413    0.65645   1.00
C3       0.46157    0.42772    0.69684   1.00
C3       0.40145    0.47344    0.66728   1.00
C2       0.56520    0.43242    0.71225   1.00
C2       0.41341    0.55556    0.63984   1.00
C3       0.60555    0.48392    0.69826   1.00
C3       0.48461    0.58783    0.64222   1.00
C3       0.49394    0.40569    0.71112   1.00
C3       0.37369    0.49894    0.65252   1.00
H1       0.60900    0.54363    0.67440   1.00
H1       0.56559    0.59152    0.65729   1.00
C5       0.38883    0.39749    0.69601   1.00
C5       0.35862    0.41688    0.68014   1.00
H1       0.65761    0.50499    0.69824   1.00
H1       0.51615    0.62954    0.63354   1.00
H1       0.46547    0.36813    0.72121   1.00
H1       0.32233    0.47654    0.65073   1.00
C6       0.34502    0.34619    0.71200   1.00
C6       0.28231    0.37797    0.67665   1.00
H2       0.36827    0.36449    0.72683   1.00
H2       0.27238    0.36967    0.66043   1.00
H2       0.29642    0.34433    0.71384   1.00
H2       0.25920    0.32598    0.68227   1.00
C6       0.33153    0.27239    0.70765   1.00
C6       0.24472    0.41340    0.68632   1.00
H2       0.37896    0.27489    0.70288   1.00
H2       0.27344    0.46810    0.68316   1.00
C6       0.30011    0.21879    0.72517   1.00
C6       0.16885    0.38644    0.67996   1.00
H2       0.29769    0.25265    0.69452   1.00
H2       0.24650    0.40907    0.70278   1.00
C6       0.35006    0.23757    0.74330   1.00
C6       0.16293    0.40072    0.65725   1.00
C6       0.23186    0.21099    0.73281   1.00
C6       0.12367    0.30905    0.68412   1.00
C6       0.28557    0.14851    0.71694   1.00
C6       0.14038    0.42441    0.69266   1.00
H2       0.39917    0.24454    0.73834   1.00
H2       0.19514    0.45482    0.65374   1.00
H2       0.35927    0.28453    0.75062   1.00
H2       0.17820    0.37215    0.64738   1.00
H2       0.32968    0.19759    0.75481   1.00
H2       0.11055    0.38605    0.65331   1.00
H2       0.20799    0.17012    0.74399   1.00
H2       0.07012    0.29178    0.68101   1.00
H2       0.23992    0.25776    0.74003   1.00
H2       0.13861    0.27956    0.67451   1.00
H2       0.19626    0.19916    0.72026   1.00
H2       0.12803    0.29741    0.69992   1.00
H2       0.33236    0.15103    0.71154   1.00
H2       0.17012    0.47936    0.69010   1.00
H2       0.26394    0.10936    0.72870   1.00
H2       0.08751    0.40761    0.68866   1.00
H2       0.24946    0.13177    0.70435   1.00
H2       0.14190    0.41518    0.70885   1.00
C4       0.50761    0.03322    0.17979   1.00
C4       0.47865    -0.01893   0.16469   1.00
C3       0.56940    0.05000    0.19008   1.00
C3       0.51295    -0.05291   0.15730   1.00
C3       0.47414    0.07048    0.18503   1.00
C3       0.41296    -0.03842   0.15646   1.00
C2       0.56799    0.14093    0.20962   1.00
C2       0.41871    -0.12671   0.13487   1.00
C3       0.59895    0.10240    0.20447   1.00
C3       0.48386    -0.10540   0.14292   1.00
C3       0.50611    0.12372    0.19968   1.00
C3       0.38497    -0.09237   0.14193   1.00
H1       0.59491    0.02431    0.18764   1.00
H1       0.56065    -0.04033   0.16194   1.00
C5       0.41033    0.05399    0.17581   1.00
C5       0.37720    -0.00410   0.16268   1.00
H1       0.64372    0.11217    0.21128   1.00
H1       0.51111    -0.12807   0.13828   1.00
H1       0.48411    0.15166    0.20370   1.00
H1       0.33819    -0.10799   0.13583   1.00
C6       0.37922    0.09848    0.17987   1.00
C6       0.30483    -0.03005   0.15549   1.00
H2       0.41909    0.15186    0.17909   1.00
H2       0.27643    -0.08548   0.15662   1.00
H2       0.34559    0.09537    0.16764   1.00
H2       0.27667    -0.01587   0.16586   1.00
C6       0.33921    0.08152    0.20043   1.00
C6       0.30082    -0.00521   0.13361   1.00
H2       0.36889    0.07475    0.21234   1.00
H2       0.33675    -0.01019   0.12368   1.00
C6       0.31799    0.13342    0.20838   1.00
C6       0.22961    -0.04055   0.12287   1.00
H2       0.29314    0.03178    0.19880   1.00
H2       0.31928    0.04948    0.13441   1.00
C6       0.38101    0.20270    0.21421   1.00
C6       0.20451    -0.11662   0.11818   1.00
C6       0.27471    0.14574    0.19255   1.00
C6       0.17516    -0.03536   0.13575   1.00
C6       0.27404    0.10348    0.22778   1.00
C6       0.23649    -0.00397   0.10236   1.00
H2       0.41324    0.19563    0.22513   1.00
H2       0.24235    -0.12210   0.10938   1.00
H2       0.41209    0.22865    0.20100   1.00
H2       0.19454    -0.14635   0.13203   1.00
H2       0.36562    0.23683    0.22104   1.00
H2       0.15722    -0.13952   0.10947   1.00
H2       0.25612    0.17811    0.19877   1.00
H2       0.12705    -0.05578   0.12752   1.00
H2       0.30477    0.17111    0.17910   1.00
H2       0.16492    -0.06428   0.14980   1.00
H2       0.23074    0.09759    0.18786   1.00
H2       0.19220    0.01761    0.13963   1.00
H2       0.30254    0.09447    0.23955   1.00
H2       0.27393    -0.00677   0.09257   1.00
H2       0.25831    0.13818    0.23399   1.00
H2       0.18804    -0.02717   0.09421   1.00
H2       0.22797    0.05509    0.22454   1.00
H2       0.25277    0.04976    0.10469   1.00
C4       0.97642    0.48200    0.18288   1.00
C4       1.02992    0.50959    0.16817   1.00
C3       0.97885    0.44674    0.20048   1.00
C3       1.09257    0.51018    0.17107   1.00
C3       0.91780    0.48938    0.18012   1.00
C3       1.02137    0.53797    0.14979   1.00
C2       0.86981    0.42910    0.21315   1.00
C2       1.13682    0.56233    0.13800   1.00
C3       0.92741    0.42135    0.21522   1.00
C3       1.14433    0.53540    0.15643   1.00
C3       0.86670    0.46312    0.19555   1.00
C3       1.07516    0.56280    0.13521   1.00
H1       1.01778    0.43758    0.20315   1.00
H1       1.10323    0.49293    0.18402   1.00
C5       0.91112    0.52186    0.16229   1.00
C5       0.96060    0.54141    0.14638   1.00
H1       0.93233    0.39664    0.22761   1.00
H1       1.18819    0.53413    0.15940   1.00
H1       0.82450    0.46779    0.19420   1.00
H1       1.07077    0.58293    0.12189   1.00
C6       0.85249    0.53577    0.16060   1.00
C6       0.94913    0.56483    0.12600   1.00
H2       0.84637    0.55557    0.17504   1.00
H2       0.96302    0.54089    0.11401   1.00
H2       0.86454    0.57815    0.15045   1.00
H2       0.89522    0.54474    0.12297   1.00
C6       0.78425    0.47210    0.15351   1.00
C6       0.98755    0.64438    0.12370   1.00
H2       0.77675    0.42685    0.16168   1.00
H2       1.03950    0.66595    0.12952   1.00
C6       0.71722    0.47568    0.15553   1.00
C6       0.99196    0.67414    0.10196   1.00
H2       0.79035    0.46255    0.13761   1.00
H2       0.96275    0.66388    0.13371   1.00
C6       0.69879    0.47823    0.17806   1.00
C6       1.03610    0.65790    0.08753   1.00
C6       0.72264    0.53805    0.14415   1.00
C6       0.92035    0.64702    0.09251   1.00
C6       0.65767    0.41026    0.14599   1.00
C6       1.02641    0.75293    0.10361   1.00
H2       0.69567    0.43543    0.18660   1.00
H2       1.08668    0.67543    0.09393   1.00
H2       0.73656    0.52514    0.18540   1.00
H2       1.01261    0.60338    0.08469   1.00
H2       0.64964    0.47593    0.17935   1.00
H2       1.04278    0.68282    0.07286   1.00
H2       0.67412    0.53738    0.14443   1.00
H2       0.92368    0.67175    0.07800   1.00
H2       0.76074    0.58560    0.15115   1.00
H2       0.89567    0.59232    0.08973   1.00
H2       0.73699    0.53825    0.12834   1.00
H2       0.88776    0.65653    0.10257   1.00
H2       0.65118    0.36462    0.15364   1.00
H2       1.07757    0.77479    0.11002   1.00
H2       0.60953    0.41017    0.14716   1.00
H2       1.03107    0.77617    0.08875   1.00
H2       0.66705    0.40626    0.12994   1.00
H2       0.99685    0.76768    0.11330   1.00
C4       0.51865    0.49561    0.18307   1.00
C4       0.49090    0.52166    0.16845   1.00
C3       0.56225    0.53651    0.19907   1.00
C3       0.49890    0.58804    0.17004   1.00
C3       0.50282    0.42616    0.18186   1.00
C3       0.45349    0.48043    0.15152   1.00
C2       0.57210    0.44209    0.21322   1.00
C2       0.43769    0.57567    0.13838   1.00
C3       0.58794    0.51060    0.21376   1.00
C3       0.47346    0.61446    0.15543   1.00
C3       0.52971    0.40164    0.19718   1.00
C3       0.42873    0.50938    0.13692   1.00
H1       0.57753    0.58684    0.20053   1.00
H1       0.52294    0.61942    0.18198   1.00
C5       0.46153    0.38329    0.16561   1.00
C5       0.44131    0.41215    0.14955   1.00
H1       0.61891    0.54266    0.22496   1.00
H1       0.48117    0.66280    0.15741   1.00
H1       0.51921    0.35243    0.19692   1.00
H1       0.40229    0.48182    0.12460   1.00
C6       0.43923    0.30812    0.16572   1.00
C6       0.40803    0.37179    0.13050   1.00
H2       0.42289    0.28804    0.18098   1.00
H2       0.43054    0.40467    0.11734   1.00
H2       0.39258    0.27832    0.15710   1.00
H2       0.42150    0.33262    0.12781   1.00
C6       0.49523    0.29286    0.15753   1.00
C6       0.32839    0.33791    0.13063   1.00
H2       0.54473    0.32947    0.16398   1.00
H2       0.31413    0.37455    0.13619   1.00
C6       0.48409    0.21962    0.16110   1.00
C6       0.28990    0.30798    0.11015   1.00
H2       0.50029    0.30295    0.14123   1.00
H2       0.30851    0.29699    0.14188   1.00
C6       0.48725    0.20515    0.18395   1.00
C6       0.30711    0.36479    0.09424   1.00
C6       0.41522    0.16393    0.15220   1.00
C6       0.30630    0.25457    0.10117   1.00
C6       0.54209    0.21432    0.15022   1.00
C6       0.21199    0.27190    0.11425   1.00
H2       0.53485    0.24423    0.19077   1.00
H2       0.29714    0.40392    0.10025   1.00
H2       0.44523    0.20391    0.19234   1.00
H2       0.36046    0.38958    0.08971   1.00
H2       0.48418    0.15593    0.18618   1.00
H2       0.27652    0.34403    0.08054   1.00
H2       0.41014    0.11353    0.15346   1.00
H2       0.27555    0.23051    0.08769   1.00
H2       0.37244    0.16233    0.16027   1.00
H2       0.35971    0.27830    0.09672   1.00
H2       0.41108    0.17373    0.13621   1.00
H2       0.29598    0.21472    0.11223   1.00
H2       0.59195    0.25219    0.15611   1.00
H2       0.19755    0.30763    0.12043   1.00
H2       0.53678    0.16409    0.15239   1.00
H2       0.18284    0.25049    0.10034   1.00
H2       0.54168    0.22270    0.13393   1.00
H2       0.19641    0.23026    0.12509   1.00
C4       0.70002    0.84041    0.65359   1.00
C4       0.64777    0.81124    0.66866   1.00
C3       0.72040    0.90487    0.64448   1.00
C3       0.61735    0.84747    0.67720   1.00
C3       0.73365    0.80440    0.64717   1.00
C3       0.62450    0.74333    0.67565   1.00
C2       0.80797    0.90098    0.62383   1.00
C2       0.53978    0.75112    0.69841   1.00
C3       0.77294    0.93449    0.63013   1.00
C3       0.56477    0.81833    0.69155   1.00
C3       0.78716    0.83651    0.63260   1.00
C3       0.57058    0.71538    0.69020   1.00
H1       0.69738    0.93242    0.64779   1.00
H1       0.63273    0.89664    0.67347   1.00
C5       0.71341    0.73804    0.65516   1.00
C5       0.65514    0.70534    0.66824   1.00
H1       0.78541    0.98124    0.62420   1.00
H1       0.54477    0.84706    0.69706   1.00
H1       0.81259    0.81272    0.62776   1.00
H1       0.55234    0.66709    0.69544   1.00
C6       0.75417    0.70376    0.64987   1.00
C6       0.62519    0.63117    0.67413   1.00
H2       0.80836    0.74111    0.65088   1.00
H2       0.56981    0.60584    0.67305   1.00
H2       0.74889    0.66703    0.66137   1.00
H2       0.63693    0.60315    0.66299   1.00
C6       0.73508    0.66752    0.62868   1.00
C6       0.64888    0.62128    0.69558   1.00
H2       0.73057    0.70080    0.61753   1.00
H2       0.64654    0.65677    0.70634   1.00
C6       0.78367    0.64367    0.61965   1.00
C6       0.60995    0.54827    0.70515   1.00
H2       0.68398    0.62309    0.62990   1.00
H2       0.70287    0.63677    0.69452   1.00
C6       0.85476    0.70505    0.61437   1.00
C6       0.53490    0.52664    0.71020   1.00
C6       0.79260    0.59529    0.63434   1.00
C6       0.61123    0.49423    0.69103   1.00
C6       0.75179    0.60403    0.59968   1.00
C6       0.64571    0.54907    0.72533   1.00
H2       0.85014    0.74077    0.60427   1.00
H2       0.53220    0.56434    0.71989   1.00
H2       0.88191    0.73285    0.62792   1.00
H2       0.50555    0.52095    0.69653   1.00
H2       0.88661    0.68818    0.60680   1.00
H2       0.50960    0.47781    0.71814   1.00
H2       0.82254    0.57513    0.62732   1.00
H2       0.58827    0.44449    0.69843   1.00
H2       0.81912    0.62204    0.64811   1.00
H2       0.58264    0.48825    0.67714   1.00
H2       0.74318    0.55234    0.63863   1.00
H2       0.66346    0.50897    0.68689   1.00
H2       0.74504    0.63621    0.58867   1.00
H2       0.64557    0.58599    0.73595   1.00
H2       0.78417    0.58666    0.59271   1.00
H2       0.62003    0.49918    0.73267   1.00
H2       0.70199    0.55921    0.60248   1.00
H2       0.69862    0.56267    0.72270   1.00
C4       0.13461    0.30119    0.65312   1.00
C4       0.15767    0.35497    0.66768   1.00
C3       0.14435    0.24417    0.65571   1.00
C3       0.18557    0.35204    0.68678   1.00
C3       0.10048    0.30374    0.63517   1.00
C3       0.15296    0.41430    0.66325   1.00
C2       0.08503    0.19074    0.62416   1.00
C2       0.20742    0.46515    0.69673   1.00
C3       0.12007    0.19040    0.64174   1.00
C3       0.21003    0.40552    0.70084   1.00
C3       0.07620    0.24777    0.62138   1.00
C3       0.17880    0.46779    0.67793   1.00
H1       0.17006    0.23988    0.66774   1.00
H1       0.18853    0.31065    0.69127   1.00
C5       0.09170    0.36121    0.63131   1.00
C5       0.12275    0.41895    0.64464   1.00
H1       0.12851    0.15060    0.64453   1.00
H1       0.22980    0.40038    0.71431   1.00
H1       0.05129    0.24751    0.60852   1.00
H1       0.17677    0.51097    0.67527   1.00
C6       0.04921    0.35987    0.61339   1.00
C6       0.12469    0.48487    0.63920   1.00
H2       0.00316    0.31001    0.61262   1.00
H2       0.17524    0.52757    0.64256   1.00
H2       0.02818    0.39323    0.61575   1.00
H2       0.12153    0.49006    0.62290   1.00
C6       0.08939    0.37912    0.59284   1.00
C6       0.06728    0.49309    0.64982   1.00
H2       0.11885    0.35300    0.59171   1.00
H2       0.06352    0.47827    0.66575   1.00
C6       0.04721    0.36491    0.57282   1.00
C6       0.07325    0.56498    0.64898   1.00
H2       0.12724    0.43341    0.59338   1.00
H2       0.01860    0.45603    0.64304   1.00
C6       -0.00039   0.28741    0.56920   1.00
C6       0.13571    0.61880    0.66116   1.00
C6       0.00419    0.40077    0.57288   1.00
C6       0.07800    0.59009    0.62686   1.00
C6       0.09759    0.39338    0.55468   1.00
C6       0.00835    0.55963    0.65875   1.00
H2       0.02831    0.26043    0.56940   1.00
H2       0.13445    0.60206    0.67677   1.00
H2       -0.03989   0.26481    0.58077   1.00
H2       0.18347    0.62824    0.65435   1.00
H2       -0.02599   0.27785    0.55455   1.00
H2       0.13675    0.66748    0.66166   1.00
H2       -0.02116   0.39460    0.55831   1.00
H2       0.07721    0.63788    0.62638   1.00
H2       -0.03528   0.37929    0.58450   1.00
H2       0.12522    0.59920    0.61971   1.00
H2       0.03630    0.45521    0.57582   1.00
H2       0.03533    0.55245    0.61785   1.00
H2       0.12881    0.36914    0.55381   1.00
H2       0.00296    0.54273    0.67450   1.00
H2       0.07047    0.38425    0.54030   1.00
H2       0.01033    0.60881    0.65865   1.00
H2       0.13175    0.44827    0.55614   1.00
H2       -0.03748   0.52333    0.65056   1.00
C4       0.16615    0.86518    0.65319   1.00
C4       0.19683    0.84217    0.66778   1.00
C3       0.09809    0.85236    0.65522   1.00
C3       0.16432    0.81114    0.68644   1.00
C3       0.20421    0.90241    0.63577   1.00
C3       0.26254    0.85019    0.66385   1.00
C2       0.10521    0.91455    0.62419   1.00
C2       0.25732    0.79260    0.69687   1.00
C3       0.06855    0.87653    0.64125   1.00
C3       0.19338    0.78676    0.70051   1.00
C3       0.17239    0.92645    0.62195   1.00
C3       0.29020    0.82433    0.67853   1.00
H1       0.06719    0.82440    0.66684   1.00
H1       0.11862    0.80570    0.69058   1.00
C5       0.27194    0.91443    0.63246   1.00
C5       0.29901    0.88360    0.64573   1.00
H1       0.01934    0.86579    0.64362   1.00
H1       0.16722    0.76463    0.71365   1.00
H1       0.19798    0.95351    0.60947   1.00
H1       0.33660    0.82866    0.67620   1.00
C6       0.31418    0.96001    0.61517   1.00
C6       0.36509    0.88524    0.64073   1.00
H2       0.30829    1.00490    0.61471   1.00
H2       0.35897    0.83512    0.64366   1.00
H2       0.36850    0.98267    0.61806   1.00
H2       0.37543    0.89078    0.62454   1.00
C6       0.29709    0.92247    0.59418   1.00
C6       0.42824    0.94287    0.65224   1.00
H2       0.24180    0.89138    0.59244   1.00
H2       0.41486    0.94402    0.66811   1.00
C6       0.32613    0.96744    0.57469   1.00
C6       0.49593    0.94008    0.65183   1.00
H2       0.31553    0.88618    0.59456   1.00
H2       0.43870    0.99177    0.64592   1.00
C6       0.29388    1.01304    0.57122   1.00
C6       0.48849    0.87717    0.66347   1.00
C6       0.40474    1.01295    0.57563   1.00
C6       0.51960    0.93917    0.62984   1.00
C6       0.30822    0.91959    0.55604   1.00
C6       0.55263    1.00485    0.66250   1.00
H2       0.23828    0.98251    0.57081   1.00
H2       0.47075    0.87572    0.67897   1.00
H2       0.30796    1.05089    0.58319   1.00
H2       0.45233    0.82970    0.65604   1.00
H2       0.31085    1.04061    0.55688   1.00
H2       0.53713    0.87820    0.66431   1.00
H2       0.42493    1.04040    0.56140   1.00
H2       0.56923    0.94216    0.62971   1.00
H2       0.41993    1.05080    0.58767   1.00
H2       0.48367    0.89228    0.62207   1.00
H2       0.42865    0.98221    0.57849   1.00
H2       0.52387    0.98219    0.62119   1.00
H2       0.25310    0.88675    0.55454   1.00
H2       0.53875    1.00760    0.67819   1.00
H2       0.32709    0.94870    0.54200   1.00
H2       0.60093    1.00503    0.66272   1.00
H2       0.33077    0.88698    0.55739   1.00
H2       0.56127    1.05105    0.65473   1.00
