data_IRMOF10_interpen_symm_ligand11cp_label_h_1.

_audit_creation_method             'generated by an auxiliary program of Tobunporous'

_symmetry_space_group_name_H-M     'P 1'
_symmetry_Int_Tables_number        1
_symmetry_cell_setting             triclinic

_cell_length_a                    22.6523
_cell_length_b                    22.6523
_cell_length_c                    65.9502
_cell_angle_alpha                 90.0000
_cell_angle_beta                  90.0000
_cell_angle_gamma                 120.0000

loop_
_atom_site_label
_atom_site_fract_x
_atom_site_fract_y
_atom_site_fract_z
_atom_site_occupancy
O1       0.00000    0.00000    0.57470   1.00
Zn1      0.00000    0.00000    0.54560   1.00
Zn1      0.94843    0.04287    0.58357   1.00
Zn1      0.09443    0.05157    0.58357   1.00
Zn1      0.95713    0.90557    0.58357   1.00
O2       0.93860    0.02610    0.53560   1.00
O2       0.08750    0.06140    0.53560   1.00
O2       0.97390    0.91250    0.53560   1.00
O2       0.91300    0.07160    0.56150   1.00
O2       0.00463    0.12027    0.60077   1.00
O2       0.87413    0.98077    0.60037   1.00
O2       0.15860    0.08700    0.56150   1.00
O2       0.10663    0.12587    0.60037   1.00
O2       0.11563    0.99537    0.60077   1.00
O2       0.92840    0.84140    0.56150   1.00
O2       0.87973    0.88437    0.60077   1.00
O2       0.01923    0.89337    0.60037   1.00
C1       0.91390    0.06020    0.54330   1.00
C1       0.14630    0.08610    0.54330   1.00
C1       0.93980    0.85370    0.54330   1.00
C1       0.06663    0.14397    0.60637   1.00
C1       0.85603    0.92267    0.60637   1.00
C1       0.07733    0.93337    0.60637   1.00
O1       0.00000    0.00000    0.92530   1.00
Zn1      0.00000    0.00000    0.95440   1.00
Zn1      0.04287    0.94843    0.91643   1.00
Zn1      0.05157    0.09443    0.91643   1.00
Zn1      0.90557    0.95713    0.91643   1.00
O2       0.02610    0.93860    0.96440   1.00
O2       0.06140    0.08750    0.96440   1.00
O2       0.91250    0.97390    0.96440   1.00
O2       0.07160    0.91300    0.93850   1.00
O2       0.12027    0.00463    0.89923   1.00
O2       0.98077    0.87413    0.89963   1.00
O2       0.08700    0.15860    0.93850   1.00
O2       0.12587    0.10663    0.89963   1.00
O2       0.99537    0.11563    0.89923   1.00
O2       0.84140    0.92840    0.93850   1.00
O2       0.88437    0.87973    0.89923   1.00
O2       0.89337    0.01923    0.89963   1.00
C1       0.06020    0.91390    0.95670   1.00
C1       0.08610    0.14630    0.95670   1.00
C1       0.85370    0.93980    0.95670   1.00
C1       0.14397    0.06663    0.89363   1.00
C1       0.92267    0.85603    0.89363   1.00
C1       0.93337    0.07733    0.89363   1.00
O1       0.00000    0.00000    0.42530   1.00
Zn1      0.00000    0.00000    0.45440   1.00
Zn1      0.05157    0.95713    0.41643   1.00
Zn1      0.90557    0.94843    0.41643   1.00
Zn1      0.04287    0.09443    0.41643   1.00
O2       0.06140    0.97390    0.46440   1.00
O2       0.91250    0.93860    0.46440   1.00
O2       0.02610    0.08750    0.46440   1.00
O2       0.08700    0.92840    0.43850   1.00
O2       0.99537    0.87973    0.39923   1.00
O2       0.12587    0.01923    0.39963   1.00
O2       0.84140    0.91300    0.43850   1.00
O2       0.89337    0.87413    0.39963   1.00
O2       0.88437    0.00463    0.39923   1.00
O2       0.07160    0.15860    0.43850   1.00
O2       0.12027    0.11563    0.39923   1.00
O2       0.98077    0.10663    0.39963   1.00
C1       0.08610    0.93980    0.45670   1.00
C1       0.85370    0.91390    0.45670   1.00
C1       0.06020    0.14630    0.45670   1.00
C1       0.93337    0.85603    0.39363   1.00
C1       0.14397    0.07733    0.39363   1.00
C1       0.92267    0.06663    0.39363   1.00
O1       0.00000    0.00000    0.07470   1.00
Zn1      0.00000    0.00000    0.04560   1.00
Zn1      0.95713    0.05157    0.08357   1.00
Zn1      0.94843    0.90557    0.08357   1.00
Zn1      0.09443    0.04287    0.08357   1.00
O2       0.97390    0.06140    0.03560   1.00
O2       0.93860    0.91250    0.03560   1.00
O2       0.08750    0.02610    0.03560   1.00
O2       0.92840    0.08700    0.06150   1.00
O2       0.87973    0.99537    0.10077   1.00
O2       0.01923    0.12587    0.10037   1.00
O2       0.91300    0.84140    0.06150   1.00
O2       0.87413    0.89337    0.10037   1.00
O2       0.00463    0.88437    0.10077   1.00
O2       0.15860    0.07160    0.06150   1.00
O2       0.11563    0.12027    0.10077   1.00
O2       0.10663    0.98077    0.10037   1.00
C1       0.93980    0.08610    0.04330   1.00
C1       0.91390    0.85370    0.04330   1.00
C1       0.14630    0.06020    0.04330   1.00
C1       0.85603    0.93337    0.10637   1.00
C1       0.07733    0.14397    0.10637   1.00
C1       0.06663    0.92267    0.10637   1.00
O1       0.66667    0.33333    0.90803   1.00
Zn1      0.66667    0.33333    0.87893   1.00
Zn1      0.61510    0.37620    0.91690   1.00
Zn1      0.76110    0.38490    0.91690   1.00
Zn1      0.62380    0.23890    0.91690   1.00
O2       0.60527    0.35943    0.86893   1.00
O2       0.75417    0.39473    0.86893   1.00
O2       0.64057    0.24583    0.86893   1.00
O2       0.57967    0.40493    0.89483   1.00
O2       0.67130    0.45360    0.93410   1.00
O2       0.54080    0.31410    0.93370   1.00
O2       0.82527    0.42033    0.89483   1.00
O2       0.77330    0.45920    0.93370   1.00
O2       0.78230    0.32870    0.93410   1.00
O2       0.59507    0.17473    0.89483   1.00
O2       0.54640    0.21770    0.93410   1.00
O2       0.68590    0.22670    0.93370   1.00
C1       0.58057    0.39353    0.87663   1.00
C1       0.81297    0.41943    0.87663   1.00
C1       0.60647    0.18703    0.87663   1.00
C1       0.73330    0.47730    0.93970   1.00
C1       0.52270    0.25600    0.93970   1.00
C1       0.74400    0.26670    0.93970   1.00
O1       0.66667    0.33333    0.25863   1.00
Zn1      0.66667    0.33333    0.28773   1.00
Zn1      0.70953    0.28177    0.24977   1.00
Zn1      0.71823    0.42777    0.24977   1.00
Zn1      0.57223    0.29047    0.24977   1.00
O2       0.69277    0.27193    0.29773   1.00
O2       0.72807    0.42083    0.29773   1.00
O2       0.57917    0.30723    0.29773   1.00
O2       0.73827    0.24633    0.27183   1.00
O2       0.78693    0.33797    0.23257   1.00
O2       0.64743    0.20747    0.23297   1.00
O2       0.75367    0.49193    0.27183   1.00
O2       0.79253    0.43997    0.23297   1.00
O2       0.66203    0.44897    0.23257   1.00
O2       0.50807    0.26173    0.27183   1.00
O2       0.55103    0.21307    0.23257   1.00
O2       0.56003    0.35257    0.23297   1.00
C1       0.72687    0.24723    0.29003   1.00
C1       0.75277    0.47963    0.29003   1.00
C1       0.52037    0.27313    0.29003   1.00
C1       0.81063    0.39997    0.22697   1.00
C1       0.58933    0.18937    0.22697   1.00
C1       0.60003    0.41067    0.22697   1.00
O1       0.66667    0.33333    0.75863   1.00
Zn1      0.66667    0.33333    0.78773   1.00
Zn1      0.71823    0.29047    0.74977   1.00
Zn1      0.57223    0.28177    0.74977   1.00
Zn1      0.70953    0.42777    0.74977   1.00
O2       0.72807    0.30723    0.79773   1.00
O2       0.57917    0.27193    0.79773   1.00
O2       0.69277    0.42083    0.79773   1.00
O2       0.75367    0.26173    0.77183   1.00
O2       0.66203    0.21307    0.73257   1.00
O2       0.79253    0.35257    0.73297   1.00
O2       0.50807    0.24633    0.77183   1.00
O2       0.56003    0.20747    0.73297   1.00
O2       0.55103    0.33797    0.73257   1.00
O2       0.73827    0.49193    0.77183   1.00
O2       0.78693    0.44897    0.73257   1.00
O2       0.64743    0.43997    0.73297   1.00
C1       0.75277    0.27313    0.79003   1.00
C1       0.52037    0.24723    0.79003   1.00
C1       0.72687    0.47963    0.79003   1.00
C1       0.60003    0.18937    0.72697   1.00
C1       0.81063    0.41067    0.72697   1.00
C1       0.58933    0.39997    0.72697   1.00
O1       0.66667    0.33333    0.40803   1.00
Zn1      0.66667    0.33333    0.37893   1.00
Zn1      0.62380    0.38490    0.41690   1.00
Zn1      0.61510    0.23890    0.41690   1.00
Zn1      0.76110    0.37620    0.41690   1.00
O2       0.64057    0.39473    0.36893   1.00
O2       0.60527    0.24583    0.36893   1.00
O2       0.75417    0.35943    0.36893   1.00
O2       0.59507    0.42033    0.39483   1.00
O2       0.54640    0.32870    0.43410   1.00
O2       0.68590    0.45920    0.43370   1.00
O2       0.57967    0.17473    0.39483   1.00
O2       0.54080    0.22670    0.43370   1.00
O2       0.67130    0.21770    0.43410   1.00
O2       0.82527    0.40493    0.39483   1.00
O2       0.78230    0.45360    0.43410   1.00
O2       0.77330    0.31410    0.43370   1.00
C1       0.60647    0.41943    0.37663   1.00
C1       0.58057    0.18703    0.37663   1.00
C1       0.81297    0.39353    0.37663   1.00
C1       0.52270    0.26670    0.43970   1.00
C1       0.74400    0.47730    0.43970   1.00
C1       0.73330    0.25600    0.43970   1.00
O1       0.33333    0.66667    0.24137   1.00
Zn1      0.33333    0.66667    0.21227   1.00
Zn1      0.28177    0.70953    0.25023   1.00
Zn1      0.42777    0.71823    0.25023   1.00
Zn1      0.29047    0.57223    0.25023   1.00
O2       0.27193    0.69277    0.20227   1.00
O2       0.42083    0.72807    0.20227   1.00
O2       0.30723    0.57917    0.20227   1.00
O2       0.24633    0.73827    0.22817   1.00
O2       0.33797    0.78693    0.26743   1.00
O2       0.20747    0.64743    0.26703   1.00
O2       0.49193    0.75367    0.22817   1.00
O2       0.43997    0.79253    0.26703   1.00
O2       0.44897    0.66203    0.26743   1.00
O2       0.26173    0.50807    0.22817   1.00
O2       0.21307    0.55103    0.26743   1.00
O2       0.35257    0.56003    0.26703   1.00
C1       0.24723    0.72687    0.20997   1.00
C1       0.47963    0.75277    0.20997   1.00
C1       0.27313    0.52037    0.20997   1.00
C1       0.39997    0.81063    0.27303   1.00
C1       0.18937    0.58933    0.27303   1.00
C1       0.41067    0.60003    0.27303   1.00
O1       0.33333    0.66667    0.59197   1.00
Zn1      0.33333    0.66667    0.62107   1.00
Zn1      0.37620    0.61510    0.58310   1.00
Zn1      0.38490    0.76110    0.58310   1.00
Zn1      0.23890    0.62380    0.58310   1.00
O2       0.35943    0.60527    0.63107   1.00
O2       0.39473    0.75417    0.63107   1.00
O2       0.24583    0.64057    0.63107   1.00
O2       0.40493    0.57967    0.60517   1.00
O2       0.45360    0.67130    0.56590   1.00
O2       0.31410    0.54080    0.56630   1.00
O2       0.42033    0.82527    0.60517   1.00
O2       0.45920    0.77330    0.56630   1.00
O2       0.32870    0.78230    0.56590   1.00
O2       0.17473    0.59507    0.60517   1.00
O2       0.21770    0.54640    0.56590   1.00
O2       0.22670    0.68590    0.56630   1.00
C1       0.39353    0.58057    0.62337   1.00
C1       0.41943    0.81297    0.62337   1.00
C1       0.18703    0.60647    0.62337   1.00
C1       0.47730    0.73330    0.56030   1.00
C1       0.25600    0.52270    0.56030   1.00
C1       0.26670    0.74400    0.56030   1.00
O1       0.33333    0.66667    0.09197   1.00
Zn1      0.33333    0.66667    0.12107   1.00
Zn1      0.38490    0.62380    0.08310   1.00
Zn1      0.23890    0.61510    0.08310   1.00
Zn1      0.37620    0.76110    0.08310   1.00
O2       0.39473    0.64057    0.13107   1.00
O2       0.24583    0.60527    0.13107   1.00
O2       0.35943    0.75417    0.13107   1.00
O2       0.42033    0.59507    0.10517   1.00
O2       0.32870    0.54640    0.06590   1.00
O2       0.45920    0.68590    0.06630   1.00
O2       0.17473    0.57967    0.10517   1.00
O2       0.22670    0.54080    0.06630   1.00
O2       0.21770    0.67130    0.06590   1.00
O2       0.40493    0.82527    0.10517   1.00
O2       0.45360    0.78230    0.06590   1.00
O2       0.31410    0.77330    0.06630   1.00
C1       0.41943    0.60647    0.12337   1.00
C1       0.18703    0.58057    0.12337   1.00
C1       0.39353    0.81297    0.12337   1.00
C1       0.26670    0.52270    0.06030   1.00
C1       0.47730    0.74400    0.06030   1.00
C1       0.25600    0.73330    0.06030   1.00
O1       0.33333    0.66667    0.74137   1.00
Zn1      0.33333    0.66667    0.71227   1.00
Zn1      0.29047    0.71823    0.75023   1.00
Zn1      0.28177    0.57223    0.75023   1.00
Zn1      0.42777    0.70953    0.75023   1.00
O2       0.30723    0.72807    0.70227   1.00
O2       0.27193    0.57917    0.70227   1.00
O2       0.42083    0.69277    0.70227   1.00
O2       0.26173    0.75367    0.72817   1.00
O2       0.21307    0.66203    0.76743   1.00
O2       0.35257    0.79253    0.76703   1.00
O2       0.24633    0.50807    0.72817   1.00
O2       0.20747    0.56003    0.76703   1.00
O2       0.33797    0.55103    0.76743   1.00
O2       0.49193    0.73827    0.72817   1.00
O2       0.44897    0.78693    0.76743   1.00
O2       0.43997    0.64743    0.76703   1.00
C1       0.27313    0.75277    0.70997   1.00
C1       0.24723    0.52037    0.70997   1.00
C1       0.47963    0.72687    0.70997   1.00
C1       0.18937    0.60003    0.77303   1.00
C1       0.41067    0.81063    0.77303   1.00
C1       0.39997    0.58933    0.77303   1.00
C5       0.90437    0.96778    0.49757   1.00
H2       0.87373    0.96118    0.51141   1.00
H2       0.86973    0.95886    0.48456   1.00
C5       0.96594    1.04127    0.49692   1.00
H2       0.95041    1.07747    0.49093   1.00
H2       1.00679    1.04321    0.48707   1.00
O_3      0.94175    0.69419    0.46684   1.00
C4       0.85926    0.69249    0.49903   1.00
C3c      0.85504    0.75196    0.49687   1.00
H1       0.83031    0.75821    0.48368   1.00
C3d      0.89082    0.68492    0.51648   1.00
C3       0.88328    0.80451    0.51143   1.00
O2       0.86991    0.85724    0.50954   1.00
C3       0.92014    0.73771    0.53080   1.00
H1       0.94593    0.73065    0.54357   1.00
C2       0.91698    0.79851    0.52874   1.00
C5       0.98671    0.67106    0.47270   1.00
H2       0.98141    0.62845    0.46294   1.00
H2       0.97776    0.65320    0.48877   1.00
C5       1.05899    0.73058    0.47061   1.00
H2       1.06373    0.77383    0.47991   1.00
H2       1.06756    0.74757    0.45448   1.00
C5       1.11131    0.71043    0.47739   1.00
H2       1.10654    0.66695    0.46827   1.00
H2       1.10429    0.69573    0.49370   1.00
H2       1.16387    0.75412    0.47534   1.00
C5       0.84311    0.57539    0.52786   1.00
C5       0.92291    0.91143    0.49855   1.00
H2       0.79675    0.55813    0.51836   1.00
H2       0.83334    0.58992    0.54314   1.00
H2       0.92612    0.89414    0.48294   1.00
H2       0.97394    0.93095    0.50585   1.00
H2       0.98694    1.05973    0.51245   1.00
H2       0.75639    0.43054    0.52162   1.00
H2       0.76450    0.45462    0.54821   1.00
C2       0.78123    0.53440    0.45421   1.00
C3       0.73793    0.53447    0.46961   1.00
O2       0.67639    0.47647    0.47354   1.00
C3       0.84924    0.58918    0.45347   1.00
H1       0.88316    0.59155    0.44157   1.00
C3a      0.76363    0.58759    0.48405   1.00
H1       0.73097    0.58486    0.49641   1.00
C3b      0.87524    0.64076    0.46823   1.00
C4       0.83244    0.64021    0.48371   1.00
O_3      0.90087    0.62977    0.51858   1.00
C5       0.62241    0.48230    0.46500   1.00
H2       0.62060    0.52711    0.47133   1.00
C5       0.55624    0.41684    0.47029   1.00
H2       0.62768    0.48782    0.44819   1.00
H2       0.54213    0.42093    0.48619   1.00
H2       0.56740    0.37419    0.47003   1.00
C5       0.49719    0.40219    0.45571   1.00
H2       0.49033    0.44742    0.45494   1.00
H2       0.44869    0.35757    0.46102   1.00
H2       0.50696    0.38937    0.44014   1.00
C5       0.85697    0.51652    0.53020   1.00
H2       0.89562    0.52969    0.54239   1.00
H2       0.88033    0.51183    0.51586   1.00
C5       0.79154    0.44885    0.53493   1.00
H2       0.80453    0.40881    0.53862   1.00
C5       0.29032    0.27606    0.57667   1.00
H2       0.24254    0.27623    0.57303   1.00
H2       0.33249    0.32861    0.57355   1.00
C5       0.29005    0.25811    0.59933   1.00
H2       0.30595    0.30381    0.60907   1.00
H2       0.32553    0.23821    0.60187   1.00
O_3      0.41966    0.14840    0.50386   1.00
C4       0.30659    0.16698    0.49874   1.00
C3c      0.30837    0.20739    0.51515   1.00
H1       0.35042    0.25898    0.51660   1.00
C3d      0.25084    0.10021    0.49697   1.00
C3       0.25681    0.18185    0.53003   1.00
O2       0.25764    0.22684    0.54421   1.00
C3       0.20009    0.07419    0.51197   1.00
H1       0.15959    0.02191    0.51035   1.00
C2       0.20148    0.11411    0.52878   1.00
C5       0.40496    0.08178    0.49885   1.00
H2       0.44102    0.08179    0.48734   1.00
H2       0.35208    0.05087    0.49278   1.00
C5       0.41139    0.04860    0.51811   1.00
H2       0.37676    0.05032    0.52980   1.00
H2       0.46453    0.07953    0.52392   1.00
C5       0.39380    -0.02517   0.51415   1.00
H2       0.42789    -0.02731   0.50239   1.00
H2       0.34000    -0.05666   0.50902   1.00
H2       0.40025    -0.04808   0.52830   1.00
C5       0.21918    0.06535    0.46432   1.00
C5       0.29317    0.22581    0.56172   1.00
H2       0.24954    0.11811    0.45829   1.00
H2       0.16606    0.05430    0.46723   1.00
H2       0.34719    0.24226    0.55782   1.00
H2       0.27028    0.17387    0.56867   1.00
H2       0.23774    0.21919    0.60446   1.00
H2       0.24719    0.08145    0.42132   1.00
H2       0.15648    0.03744    0.42698   1.00
C2       0.46560    0.23907    0.45428   1.00
C3       0.41121    0.25214    0.45193   1.00
O2       0.39915    0.27241    0.43340   1.00
C3       0.46769    0.20493    0.47201   1.00
H1       0.50956    0.19572    0.47451   1.00
C3a      0.35982    0.22956    0.46688   1.00
H1       0.31652    0.23651    0.46431   1.00
C3b      0.41538    0.18063    0.48653   1.00
C4       0.36080    0.19273    0.48403   1.00
O_3      0.24926    0.05667    0.48198   1.00
C5       0.42379    0.34327    0.43342   1.00
H2       0.39853    0.35762    0.44545   1.00
C5       0.40751    0.36140    0.41259   1.00
H2       0.47997    0.37237    0.43597   1.00
H2       0.35294    0.34767    0.41241   1.00
H2       0.41283    0.32797    0.40121   1.00
C5       0.45385    0.43718    0.40705   1.00
H2       0.45204    0.46979    0.41935   1.00
H2       0.43682    0.44964    0.39263   1.00
H2       0.50777    0.44969    0.40462   1.00
C5       0.21739    0.01570    0.44844   1.00
H2       0.17786    -0.03687   0.45292   1.00
H2       0.26738    0.01732    0.44871   1.00
C5       0.20323    0.03296    0.42704   1.00
H2       0.19522    -0.00813   0.41626   1.00
C5       0.75286    0.05987    0.58222   1.00
H2       0.74270    0.00696    0.58009   1.00
H2       0.70263    0.05704    0.58078   1.00
C5       0.78316    0.08551    0.60359   1.00
H2       0.74213    0.06632    0.61526   1.00
H2       0.81164    0.14226    0.60391   1.00
O_3      0.87446    0.27928    0.49934   1.00
C4       0.83286    0.13952    0.49876   1.00
C3c      0.79836    0.11285    0.51714   1.00
H1       0.75140    0.11278    0.52017   1.00
C3d      0.89345    0.13824    0.49499   1.00
C3       0.82411    0.08689    0.53197   1.00
O2       0.78347    0.05417    0.54845   1.00
C3       0.91991    0.11362    0.50989   1.00
H1       0.96779    0.11590    0.50662   1.00
C2       0.88606    0.08716    0.52865   1.00
C5       0.94029    0.32038    0.49113   1.00
H2       0.94072    0.35389    0.47868   1.00
H2       0.96112    0.28851    0.48504   1.00
C5       0.98624    0.36520    0.50810   1.00
H2       0.98432    0.33177    0.52079   1.00
H2       0.96533    0.39724    0.51394   1.00
C5       1.05971    0.41002    0.50063   1.00
H2       1.06195    0.44319    0.48786   1.00
H2       1.08146    0.37807    0.49545   1.00
H2       1.09221    0.44348    0.51312   1.00
C5       0.90888    0.12083    0.46180   1.00
C5       0.79934    0.10086    0.56459   1.00
H2       0.85497    0.10389    0.45786   1.00
H2       0.91301    0.07505    0.46568   1.00
H2       0.78912    0.14236    0.56001   1.00
H2       0.85410    0.12546    0.56925   1.00
H2       0.81817    0.06630    0.60808   1.00
H2       0.87516    0.11752    0.41941   1.00
H2       0.90928    0.06194    0.42531   1.00
C2       0.76124    0.22615    0.45406   1.00
C3       0.73690    0.15531    0.45413   1.00
O2       0.70407    0.11623    0.43734   1.00
C3       0.80671    0.26649    0.46960   1.00
H1       0.82490    0.32058    0.47028   1.00
C3a      0.75956    0.12692    0.46919   1.00
H1       0.74350    0.07328    0.46835   1.00
C3b      0.83084    0.23846    0.48416   1.00
C4       0.80742    0.16821    0.48402   1.00
O_3      0.93202    0.16852    0.47783   1.00
C5       0.63295    0.07981    0.44055   1.00
H2       0.61935    0.04536    0.45398   1.00
C5       0.60053    0.03710    0.42149   1.00
H2       0.61286    0.11527    0.44297   1.00
H2       0.60572    -0.00922   0.42222   1.00
H2       0.63132    0.06739    0.40825   1.00
C5       0.52511    0.01707    0.41883   1.00
H2       0.49625    -0.00834   0.43284   1.00
H2       0.50179    -0.01857   0.40582   1.00
H2       0.51981    0.06262    0.41550   1.00
C5       0.95346    0.15589    0.44342   1.00
H2       1.00484    0.16217    0.44612   1.00
H2       0.96041    0.20808    0.44226   1.00
C5       0.92206    0.11597    0.42370   1.00
H2       0.95901    0.13906    0.41102   1.00
C5       0.97208    0.91702    0.00387   1.00
H2       0.96693    0.88510    -0.00954   1.00
H2       0.96457    0.88451    0.01734   1.00
C5       1.04429    0.98069    0.00414   1.00
H2       1.08207    0.96813    0.01064   1.00
H2       1.04420    1.02181    0.01337   1.00
O_3      0.68998    0.94372    0.03187   1.00
C4       0.69251    0.85924    0.00097   1.00
C3c      0.75358    0.85835    0.00366   1.00
H1       0.76110    0.83627    0.01726   1.00
C3d      0.68333    0.88737    -0.01700   1.00
C3       0.80608    0.88661    -0.01091   1.00
O2       0.86070    0.87645    -0.00842   1.00
C3       0.73602    0.91671    -0.03135   1.00
H1       0.72761    0.93985    -0.04456   1.00
C2       0.79841    0.91692    -0.02877   1.00
C5       0.66413    0.98560    0.02515   1.00
H2       0.62071    0.97956    0.03465   1.00
H2       0.64640    0.97395    0.00910   1.00
C5       0.72149    1.05918    0.02658   1.00
H2       0.76560    1.06477    0.01755   1.00
H2       0.73835    1.07043    0.04270   1.00
C5       0.69835    1.10825    0.01884   1.00
H2       0.65401    1.10261    0.02770   1.00
H2       0.68375    1.09862    0.00255   1.00
H2       0.74047    1.16185    0.02042   1.00
C5       0.57363    0.83403    -0.02848   1.00
C5       0.91350    0.93214    0.00217   1.00
H2       0.55817    0.78925    -0.01841   1.00
H2       0.58909    0.82330    -0.04349   1.00
H2       0.89554    0.93639    0.01758   1.00
H2       0.93103    0.98186    -0.00576   1.00
H2       1.06226    1.00007    -0.01155   1.00
H2       0.42957    0.74320    -0.02203   1.00
H2       0.45400    0.74891    -0.04853   1.00
C2       0.53421    0.78112    0.04573   1.00
C3       0.53651    0.73701    0.03101   1.00
O2       0.48019    0.67372    0.02759   1.00
C3       0.58694    0.85014    0.04584   1.00
H1       0.58762    0.88479    0.05723   1.00
C3a      0.58972    0.76283    0.01660   1.00
H1       0.58862    0.72933    0.00474   1.00
C3b      0.63857    0.87614    0.03110   1.00
C4       0.64021    0.83248    0.01629   1.00
O_3      0.62639    0.89414    -0.01968   1.00
C5       0.48876    0.62254    0.03700   1.00
H2       0.53476    0.62220    0.03105   1.00
C5       0.42503    0.55420    0.03223   1.00
H2       0.49403    0.63008    0.05375   1.00
H2       0.43002    0.53865    0.01659   1.00
H2       0.38082    0.56298    0.03198   1.00
C5       0.41284    0.49784    0.04759   1.00
H2       0.45948    0.49351    0.04882   1.00
H2       0.36959    0.44774    0.04269   1.00
H2       0.39913    0.50869    0.06289   1.00
C5       0.51270    0.84430    -0.03149   1.00
H2       0.52436    0.88103    -0.04416   1.00
H2       0.50666    0.86863    -0.01756   1.00
C5       0.44668    0.77664    -0.03573   1.00
H2       0.40507    0.78682    -0.03992   1.00
C5       0.27587    0.29048    -0.07672   1.00
H2       0.27612    0.24273    -0.07309   1.00
H2       0.32841    0.33269    -0.07362   1.00
C5       0.25782    0.29018    -0.09938   1.00
H2       0.30349    0.30613    -0.10913   1.00
H2       0.23785    0.32561    -0.10190   1.00
O_3      0.14821    0.41955    -0.00383   1.00
C4       0.16698    0.30659    0.00126   1.00
C3c      0.20735    0.30842    -0.01516   1.00
H1       0.25892    0.35052    -0.01663   1.00
C3d      0.10025    0.25078    0.00305   1.00
C3       0.18181    0.25686    -0.03004   1.00
O2       0.22678    0.25776    -0.04425   1.00
C3       0.07423    0.20003    -0.01195   1.00
H1       0.02197    0.15949    -0.01032   1.00
C2       0.11411    0.20148    -0.02877   1.00
C5       0.08159    0.40477    0.00121   1.00
H2       0.08158    0.44081    0.01273   1.00
H2       0.05074    0.35189    0.00728   1.00
C5       0.04830    0.41115    -0.01804   1.00
H2       0.05003    0.37654    -0.02974   1.00
H2       0.07915    0.46430    -0.02385   1.00
C5       -0.02548   0.39347    -0.01405   1.00
H2       -0.02762   0.42753    -0.00228   1.00
H2       -0.05690   0.33966    -0.00892   1.00
H2       -0.04847   0.39988    -0.02818   1.00
C5       0.06554    0.21911    0.03570   1.00
C5       0.22563    0.29326    -0.06175   1.00
H2       0.11830    0.24952    0.04172   1.00
H2       0.05454    0.16601    0.03279   1.00
H2       0.24204    0.34726    -0.05784   1.00
H2       0.17367    0.27030    -0.06868   1.00
H2       0.21893    0.23785    -0.10450   1.00
H2       0.08176    0.24712    0.07871   1.00
H2       0.03783    0.15641    0.07305   1.00
C2       0.23907    0.46560    0.04572   1.00
C3       0.25223    0.41126    0.04805   1.00
O2       0.27260    0.39924    0.06657   1.00
C3       0.20484    0.46763    0.02801   1.00
H1       0.19555    0.50946    0.02552   1.00
C3a      0.22966    0.35987    0.03310   1.00
H1       0.23668    0.31662    0.03566   1.00
C3b      0.18053    0.41532    0.01349   1.00
C4       0.19273    0.36080    0.01597   1.00
O_3      0.05674    0.24915    0.01806   1.00
C5       0.34347    0.42396    0.06652   1.00
H2       0.35783    0.39874    0.05449   1.00
C5       0.36172    0.40772    0.08735   1.00
H2       0.37251    0.48014    0.06398   1.00
H2       0.34806    0.35317    0.08752   1.00
H2       0.32830    0.41299    0.09874   1.00
C5       0.43751    0.45413    0.09287   1.00
H2       0.47010    0.45237    0.08055   1.00
H2       0.45005    0.43714    0.10727   1.00
H2       0.44996    0.50803    0.09529   1.00
C5       0.01591    0.21725    0.05161   1.00
H2       -0.03666   0.17767    0.04714   1.00
H2       0.01746    0.26720    0.05135   1.00
C5       0.03328    0.20312    0.07300   1.00
H2       -0.00778   0.19506    0.08379   1.00
C5       0.05987    0.75285    -0.08222   1.00
H2       0.00696    0.74270    -0.08009   1.00
H2       0.05704    0.70263    -0.08078   1.00
C5       0.08551    0.78316    -0.10359   1.00
H2       0.06632    0.74213    -0.11526   1.00
H2       0.14226    0.81164    -0.10391   1.00
O_3      0.27928    0.87446    0.00066   1.00
C4       0.13952    0.83286    0.00124   1.00
C3c      0.11285    0.79836    -0.01714   1.00
H1       0.11278    0.75140    -0.02017   1.00
C3d      0.13824    0.89345    0.00501   1.00
C3       0.08689    0.82411    -0.03197   1.00
O2       0.05416    0.78347    -0.04845   1.00
C3       0.11362    0.91991    -0.00989   1.00
H1       0.11590    0.96779    -0.00662   1.00
C2       0.08716    0.88606    -0.02865   1.00
C5       0.32038    0.94029    0.00887   1.00
H2       0.35389    0.94072    0.02132   1.00
H2       0.28851    0.96112    0.01496   1.00
C5       0.36520    0.98624    -0.00810   1.00
H2       0.33177    0.98431    -0.02079   1.00
H2       0.39723    0.96532    -0.01394   1.00
C5       0.41002    1.05971    -0.00063   1.00
H2       0.44319    1.06195    0.01214   1.00
H2       0.37807    1.08146    0.00455   1.00
H2       0.44348    1.09221    -0.01312   1.00
C5       0.12083    0.90888    0.03820   1.00
C5       0.10086    0.79934    -0.06459   1.00
H2       0.10389    0.85497    0.04214   1.00
H2       0.07506    0.91301    0.03432   1.00
H2       0.14236    0.78912    -0.06001   1.00
H2       0.12546    0.85410    -0.06925   1.00
H2       0.06630    0.81817    -0.10808   1.00
H2       0.11752    0.87516    0.08059   1.00
H2       0.06194    0.90929    0.07469   1.00
C2       0.22615    0.76124    0.04594   1.00
C3       0.15531    0.73690    0.04587   1.00
O2       0.11623    0.70407    0.06266   1.00
C3       0.26649    0.80671    0.03040   1.00
H1       0.32058    0.82490    0.02972   1.00
C3a      0.12692    0.75956    0.03081   1.00
H1       0.07328    0.74350    0.03165   1.00
C3b      0.23846    0.83084    0.01584   1.00
C4       0.16821    0.80742    0.01598   1.00
O_3      0.16852    0.93202    0.02217   1.00
C5       0.07981    0.63295    0.05945   1.00
H2       0.04536    0.61935    0.04602   1.00
C5       0.03710    0.60053    0.07851   1.00
H2       0.11527    0.61286    0.05703   1.00
H2       -0.00922   0.60573    0.07778   1.00
H2       0.06739    0.63132    0.09175   1.00
C5       0.01707    0.52511    0.08117   1.00
H2       -0.00834   0.49625    0.06716   1.00
H2       -0.01857   0.50180    0.09418   1.00
H2       0.06262    0.51981    0.08450   1.00
C5       0.15590    0.95346    0.05658   1.00
H2       0.16217    1.00484    0.05388   1.00
H2       0.20809    0.96041    0.05774   1.00
C5       0.11598    0.92206    0.07630   1.00
H2       0.13906    0.95901    0.08898   1.00
C5       0.08500    0.31316    0.41566   1.00
H2       0.11673    0.29110    0.41067   1.00
H2       0.11786    0.36929    0.41410   1.00
C5       0.02166    0.28673    0.40178   1.00
H2       0.03469    0.31646    0.38741   1.00
H2       -0.01943   0.29107    0.40969   1.00
O_3      0.05657    0.35034    0.51940   1.00
C4       0.14076    0.30696    0.50113   1.00
C3c      0.14218    0.32167    0.48039   1.00
H1       0.16469    0.37407    0.47546   1.00
C3d      0.11208    0.23839    0.50721   1.00
C3       0.11393    0.26939    0.46575   1.00
O2       0.12460    0.28793    0.44562   1.00
C3       0.08274    0.18616    0.49271   1.00
H1       0.05917    0.13424    0.49816   1.00
C2       0.08307    0.20009    0.47169   1.00
C5       0.01419    0.30520    0.53464   1.00
H2       0.02010    0.33153    0.54941   1.00
H2       0.02541    0.26304    0.53710   1.00
C5       -0.05921   0.27515    0.52762   1.00
H2       -0.06465   0.25049    0.51258   1.00
H2       -0.07003   0.31762    0.52539   1.00
C5       -0.10881   0.22341    0.54304   1.00
H2       -0.10331   0.24757    0.55813   1.00
H2       -0.09959   0.17979    0.54475   1.00
H2       -0.16225   0.20312    0.53786   1.00
C5       0.16453    0.22264    0.53452   1.00
C5       0.06933    0.29381    0.43807   1.00
H2       0.20957    0.27477    0.53325   1.00
H2       0.17511    0.18652    0.52590   1.00
H2       0.06524    0.33438    0.44648   1.00
H2       0.01939    0.24541    0.43968   1.00
H2       0.00202    0.23241    0.39733   1.00
H2       0.25471    0.27591    0.56904   1.00
H2       0.24863    0.19832    0.55898   1.00
C2       0.21886    0.46313    0.54655   1.00
C3       0.26286    0.44472    0.53682   1.00
O2       0.32588    0.46344    0.54502   1.00
C3       0.14999    0.43128    0.54021   1.00
H1       0.11544    0.44551    0.54699   1.00
C3a      0.23706    0.39430    0.52154   1.00
H1       0.27043    0.37800    0.51506   1.00
C3b      0.12399    0.37962    0.52547   1.00
C4       0.16753    0.36062    0.51603   1.00
O_3      0.10478    0.22091    0.52754   1.00
C5       0.37752    0.51967    0.53439   1.00
H2       0.37809    0.50739    0.51802   1.00
C5       0.44553    0.53647    0.54413   1.00
H2       0.37033    0.56479    0.53556   1.00
H2       0.46086    0.50003    0.53822   1.00
H2       0.43637    0.52631    0.56070   1.00
C5       0.50233    0.61064    0.54033   1.00
H2       0.50706    0.62147    0.52379   1.00
H2       0.55218    0.61923    0.54614   1.00
H2       0.49164    0.64774    0.54840   1.00
C5       0.15368    0.20189    0.55677   1.00
H2       0.11664    0.14619    0.55771   1.00
H2       0.12949    0.22845    0.56435   1.00
C5       0.22100    0.21960    0.56746   1.00
H2       0.21036    0.19748    0.58298   1.00
C5       0.71519    0.71771    0.42513   1.00
H2       0.72347    0.76212    0.41585   1.00
H2       0.65990    0.67997    0.42396   1.00
C5       0.75801    0.68765    0.41640   1.00
H2       0.73165    0.65376    0.40324   1.00
H2       0.76658    0.65783    0.42828   1.00
O_3      0.68245    0.73637    0.52957   1.00
C4       0.69282    0.83368    0.50107   1.00
C3c      0.68293    0.80244    0.48200   1.00
H1       0.63428    0.75828    0.47839   1.00
C3d      0.75628    0.89176    0.50536   1.00
C3       0.73552    0.82681    0.46746   1.00
O2       0.71955    0.79889    0.44832   1.00
C3       0.80916    0.91536    0.49106   1.00
H1       0.85769    0.95859    0.49531   1.00
C2       0.80026    0.88392    0.47179   1.00
C5       0.73036    0.76551    0.54545   1.00
H2       0.70565    0.75269    0.56068   1.00
H2       0.76042    0.82218    0.54404   1.00
C5       0.77847    0.73713    0.54404   1.00
H2       0.80172    0.74826    0.52862   1.00
H2       0.74801    0.68061    0.54566   1.00
C5       0.83394    0.76815    0.56040   1.00
H2       0.81106    0.75764    0.57583   1.00
H2       0.86589    0.82431    0.55837   1.00
H2       0.86770    0.74569    0.55942   1.00
C5       0.74927    0.97025    0.52535   1.00
C5       0.73314    0.74450    0.44689   1.00
H2       0.69331    0.94639    0.52301   1.00
H2       0.77593    1.01116    0.51378   1.00
H2       0.70087    0.70350    0.45791   1.00
H2       0.78760    0.76081    0.45028   1.00
H2       0.80837    0.72877    0.41063   1.00
H2       0.67406    1.00743    0.55290   1.00
H2       0.73948    1.07998    0.53896   1.00
C2       0.53751    0.75742    0.54674   1.00
C3       0.53952    0.80346    0.53194   1.00
O2       0.50366    0.83728    0.53478   1.00
C3       0.58556    0.73498    0.54542   1.00
H1       0.58425    0.69841    0.55620   1.00
C3a      0.58992    0.82716    0.51666   1.00
H1       0.59323    0.86534    0.50615   1.00
C3b      0.63696    0.76031    0.53060   1.00
C4       0.63956    0.80687    0.51609   1.00
O_3      0.77031    0.92125    0.52443   1.00
C5       0.44339    0.80663    0.52309   1.00
H2       0.45494    0.80774    0.50659   1.00
C5       0.40732    0.84757    0.52680   1.00
H2       0.40927    0.75263    0.52777   1.00
H2       0.43243    0.89454    0.51733   1.00
H2       0.41648    0.86467    0.54291   1.00
C5       0.33022    0.80651    0.52227   1.00
H2       0.32191    0.78532    0.50666   1.00
H2       0.30692    0.83956    0.52348   1.00
H2       0.30287    0.76402    0.53339   1.00
C5       0.76682    1.00211    0.54640   1.00
H2       0.82316    1.03572    0.54741   1.00
H2       0.75225    0.96054    0.55771   1.00
C5       0.73012    1.04226    0.55114   1.00
H2       0.74948    1.07053    0.56564   1.00
C5       0.28020    0.99343    0.42449   1.00
H2       0.23516    0.95735    0.41541   1.00
H2       0.31729    0.97507    0.42326   1.00
C5       0.31081    1.06602    0.41550   1.00
H2       0.34396    1.07250    0.40223   1.00
H2       0.34155    1.10475    0.42720   1.00
O_3      0.26549    0.94640    0.52909   1.00
C4       0.16631    0.85914    0.50107   1.00
C3c      0.19679    0.87933    0.48187   1.00
H1       0.24035    0.87392    0.47815   1.00
C3d      0.10900    0.86571    0.50550   1.00
C3       0.17244    0.90755    0.46733   1.00
O2       0.19947    0.91833    0.44809   1.00
C3       0.08543    0.89500    0.49120   1.00
H1       0.04285    0.90124    0.49554   1.00
C2       0.11612    0.91637    0.47179   1.00
C5       0.23761    0.96648    0.54501   1.00
H2       0.25081    0.95494    0.56023   1.00
H2       0.18092    0.94053    0.54381   1.00
C5       0.26694    1.04306    0.54333   1.00
H2       0.25542    1.05480    0.52791   1.00
H2       0.32349    1.06847    0.54473   1.00
C5       0.23730    1.06891    0.55971   1.00
H2       0.24821    1.05694    0.57514   1.00
H2       0.18113    1.04534    0.55789   1.00
H2       0.26045    1.12517    0.55852   1.00
C5       0.03065    0.78167    0.52591   1.00
C5       0.25446    0.98589    0.44634   1.00
H2       0.05368    0.74882    0.52359   1.00
H2       -0.01066   0.76749    0.51449   1.00
H2       0.29574    0.99448    0.45723   1.00
H2       0.23906    1.02476    0.44968   1.00
H2       0.26993    1.07577    0.40981   1.00
H2       -0.00683   0.67016    0.55384   1.00
H2       -0.07951   0.66357    0.54011   1.00
C2       0.24267    0.78015    0.54673   1.00
C3       0.19564    0.73590    0.53217   1.00
O2       0.16108    0.66633    0.53527   1.00
C3       0.26601    0.85078    0.54518   1.00
H1       0.30334    0.88620    0.55577   1.00
C3a      0.17190    0.76255    0.51689   1.00
H1       0.13300    0.72758    0.50656   1.00
C3b      0.24067    0.87685    0.53036   1.00
C4       0.19313    0.83267    0.51609   1.00
O_3      0.08035    0.85143    0.52469   1.00
C5       0.19047    0.63546    0.52358   1.00
H2       0.18881    0.64531    0.50705   1.00
C5       0.14878    0.55867    0.52758   1.00
H2       0.24455    0.65481    0.52806   1.00
H2       0.10142    0.53700    0.51829   1.00
H2       0.13241    0.55164    0.54376   1.00
C5       0.18871    0.52148    0.52304   1.00
H2       0.20924    0.53344    0.50734   1.00
H2       0.15507    0.46527    0.52448   1.00
H2       0.23158    0.53650    0.53400   1.00
C5       -0.00024   0.76867    0.54708   1.00
H2       -0.03315   0.79218    0.54812   1.00
H2       0.04193    0.79568    0.55821   1.00
C5       -0.04110   0.69206    0.55212   1.00
H2       -0.06864   0.68417    0.56671   1.00
C5       0.04938    0.13515    1.00321   1.00
H2       0.01824    0.07885    1.00464   1.00
H2       0.04820    0.14652    0.98688   1.00
C5       0.01722    0.16883    1.01615   1.00
H2       -0.02582   0.16860    1.00792   1.00
H2       0.05627    0.22243    1.01978   1.00
O_3      0.40208    0.28008    0.99850   1.00
C4       0.30694    0.13943    0.99885   1.00
C3c      0.24315    0.13370    0.99526   1.00
H1       0.23333    0.15019    0.98090   1.00
C3d      0.31836    0.11674    1.01756   1.00
C3       0.19158    0.10769    1.01014   1.00
O2       0.12792    0.09589    1.00466   1.00
C3       0.26758    0.09204    1.03254   1.00
H1       0.27952    0.07751    1.04691   1.00
C2       0.20304    0.08659    1.02925   1.00
C5       0.45298    0.29908    1.01349   1.00
H2       0.50538    0.32695    1.00696   1.00
H2       0.44717    0.25350    1.02177   1.00
C5       0.44513    0.34586    1.02840   1.00
H2       0.39215    0.31871    1.03449   1.00
H2       0.45165    0.39147    1.01999   1.00
C5       0.49720    0.36709    1.04567   1.00
H2       0.55021    0.39382    1.03968   1.00
H2       0.48920    0.32180    1.05451   1.00
H2       0.49167    0.40246    1.05617   1.00
C5       0.38679    0.06974    1.01542   1.00
C5       0.12169    0.15341    1.00944   1.00
H2       0.38188    0.06503    0.99863   1.00
H2       0.34688    0.02104    1.02236   1.00
H2       0.16008    0.19881    1.00077   1.00
H2       0.13010    0.16673    1.02593   1.00
H2       -0.00458   0.14014    1.03058   1.00
H2       0.48408    0.04688    0.99354   1.00
H2       0.43433    -0.02037   1.01169   1.00
C2       0.46837    0.22514    0.95512   1.00
C3       0.41911    0.15511    0.95434   1.00
O2       0.43112    0.11069    0.94315   1.00
C3       0.46090    0.26616    0.96994   1.00
H1       0.49674    0.32027    0.97060   1.00
C3a      0.36519    0.12756    0.96852   1.00
H1       0.33014    0.07318    0.96846   1.00
C3b      0.40848    0.23821    0.98443   1.00
C4       0.36015    0.16839    0.98383   1.00
O_3      0.38191    0.12603    1.02242   1.00
C5       0.39503    0.09495    0.92466   1.00
H2       0.33895    0.07080    0.92728   1.00
C5       0.41003    0.04485    0.91335   1.00
H2       0.41208    0.14166    0.91527   1.00
H2       0.37733    -0.00697   0.91985   1.00
H2       0.46379    0.05929    0.91675   1.00
C5       0.39881    0.04429    0.89026   1.00
H2       0.34663    0.03514    0.88721   1.00
H2       0.40461    0.00335    0.88281   1.00
H2       0.43722    0.09348    0.88311   1.00
C5       0.45680    0.08157    1.02143   1.00
H2       0.45734    0.07450    1.03813   1.00
H2       0.49515    0.13577    1.01815   1.00
C5       0.47532    0.03375    1.01000   1.00
H2       0.52319    0.03879    1.01625   1.00
C5       0.70175    0.73652    1.06795   1.00
H2       0.73936    0.73859    1.07916   1.00
H2       0.65829    0.68336    1.06840   1.00
C5       0.67803    0.78722    1.07424   1.00
H2       0.63785    0.76465    1.08614   1.00
H2       0.65736    0.80082    1.06084   1.00
O_3      0.75576    0.69631    0.96620   1.00
C4       0.83359    0.69272    0.99896   1.00
C3c      0.79606    0.68746    1.01650   1.00
H1       0.74689    0.64247    1.01891   1.00
C3d      0.89798    0.75135    0.99626   1.00
C3       0.82064    0.74018    1.03100   1.00
O2       0.78509    0.72792    1.04890   1.00
C3       0.92202    0.80450    1.01048   1.00
H1       0.97058    0.84950    1.00740   1.00
C2       0.88439    0.80034    1.02819   1.00
C5       0.79625    0.74262    0.95092   1.00
H2       0.78689    0.71788    0.93573   1.00
H2       0.85165    0.76588    0.95447   1.00
C5       0.77789    0.79855    0.94993   1.00
H2       0.78541    0.82199    0.96525   1.00
H2       0.72264    0.77483    0.94618   1.00
C5       0.82150    0.85263    0.93412   1.00
H2       0.81459    0.82949    0.91880   1.00
H2       0.87649    0.87800    0.93822   1.00
H2       0.80631    0.89228    0.93329   1.00
C5       0.97575    0.73108    0.98048   1.00
C5       0.73767    0.75102    1.04737   1.00
H2       0.94422    0.67505    0.98278   1.00
H2       1.01225    0.75341    0.99339   1.00
H2       0.69995    0.72273    1.03511   1.00
H2       0.76257    0.80662    1.04369   1.00
H2       0.72092    0.83472    1.08093   1.00
H2       1.00831    0.64422    0.95659   1.00
H2       1.07865    0.70306    0.97260   1.00
C2       0.75825    0.53764    0.95323   1.00
C3       0.79406    0.53289    0.97009   1.00
O2       0.81991    0.48915    0.96968   1.00
C3       0.74526    0.59258    0.95244   1.00
H1       0.71645    0.59670    0.94000   1.00
C3a      0.81738    0.58338    0.98533   1.00
H1       0.84807    0.58114    0.99755   1.00
C3b      0.77039    0.64388    0.96728   1.00
C4       0.80690    0.63965    0.98388   1.00
O_3      0.93460    0.76130    0.97855   1.00
C5       0.77776    0.42978    0.98098   1.00
H2       0.77391    0.44232    0.99713   1.00
C5       0.81033    0.38469    0.98007   1.00
H2       0.72544    0.40168    0.97440   1.00
H2       0.85290    0.40437    0.99123   1.00
H2       0.83379    0.39145    0.96478   1.00
C5       0.75898    0.30881    0.98413   1.00
H2       0.73217    0.30360    0.99871   1.00
H2       0.78549    0.27868    0.98503   1.00
H2       0.72076    0.28600    0.97160   1.00
C5       1.01589    0.74438    0.96085   1.00
H2       1.05573    0.79932    0.96033   1.00
H2       0.98064    0.73509    0.94791   1.00
C5       1.04808    0.69872    0.95889   1.00
H2       1.08260    0.71467    0.94553   1.00
C5       0.99273    0.27983    1.07562   1.00
H2       0.95665    0.23468    1.08466   1.00
H2       0.97423    0.31681    1.07686   1.00
C5       1.06527    0.31054    1.08466   1.00
H2       1.07156    0.34356    1.09794   1.00
H2       1.10406    0.34143    1.07298   1.00
O_3      0.94645    0.26581    0.97099   1.00
C4       0.85914    0.16631    0.99893   1.00
C3c      0.87913    0.19666    1.01815   1.00
H1       0.87356    0.24011    1.02188   1.00
C3d      0.86591    0.10913    0.99447   1.00
C3       0.90736    0.17231    1.03270   1.00
O2       0.91792    0.19919    1.05195   1.00
C3       0.89520    0.08557    1.00878   1.00
H1       0.90161    0.04310    1.00442   1.00
C2       0.91638    0.11613    1.02821   1.00
C5       0.96676    0.23815    0.95507   1.00
H2       0.95527    0.25141    0.93985   1.00
H2       0.94092    0.18145    0.95623   1.00
C5       1.04335    0.26764    0.95679   1.00
H2       1.05502    0.25605    0.97221   1.00
H2       1.06864    0.32419    0.95543   1.00
C5       1.06944    0.23824    0.94041   1.00
H2       1.05754    0.24922    0.92498   1.00
H2       1.04599    0.18207    0.94220   1.00
H2       1.12571    0.26151    0.94163   1.00
C5       0.78213    0.03081    0.97399   1.00
C5       0.98541    0.25427    1.05375   1.00
H2       0.74915    0.05370    0.97631   1.00
H2       0.76796    -0.01057   0.98539   1.00
H2       0.99398    0.29561    1.04289   1.00
H2       1.02441    0.23903    1.05043   1.00
H2       1.07510    0.26970    1.09032   1.00
H2       0.67078    -0.00672   0.94600   1.00
H2       0.66428    -0.07942   0.95969   1.00
C2       0.78016    0.24268    0.95327   1.00
C3       0.73587    0.19548    0.96779   1.00
O2       0.66632    0.16080    0.96464   1.00
C3       0.85082    0.26618    0.95486   1.00
H1       0.88625    0.30364    0.94430   1.00
C3a      0.76252    0.17173    0.98307   1.00
H1       0.72753    0.13271    0.99337   1.00
C3b      0.87688    0.24083    0.96968   1.00
C4       0.83267    0.19313    0.98391   1.00
O_3      0.85184    0.08063    0.97527   1.00
C5       0.63525    0.18997    0.97634   1.00
H2       0.64499    0.18822    0.99287   1.00
C5       0.55849    0.14816    0.97228   1.00
H2       0.65450    0.24407    0.97188   1.00
H2       0.53686    0.10073    0.98154   1.00
H2       0.55162    0.13191    0.95609   1.00
C5       0.52110    0.18789    0.97683   1.00
H2       0.53291    0.20830    0.99254   1.00
H2       0.46492    0.15415    0.97535   1.00
H2       0.53611    0.23083    0.96589   1.00
C5       0.76935    0.00009    0.95281   1.00
H2       0.79300    -0.03270   0.95175   1.00
H2       0.79637    0.04236    0.94170   1.00
C5       0.69280    -0.04089   0.94771   1.00
H2       0.68508    -0.06830   0.93311   1.00
C5       0.64250    1.03876    0.91140   1.00
H2       0.69173    1.08555    0.90805   1.00
H2       0.65132    0.99536    0.90867   1.00
C5       0.62290    1.03984    0.93383   1.00
H2       0.65045    1.02252    0.94402   1.00
H2       0.56700    1.00587    0.93590   1.00
O_3      0.39318    0.91671    0.83627   1.00
C4       0.52708    1.02673    0.83207   1.00
C3c      0.56316    1.02348    0.84896   1.00
H1       0.57068    0.98025    0.85079   1.00
C3d      0.51869    1.08397    0.82982   1.00
C3       0.58916    1.07507    0.86383   1.00
O2       0.63092    1.07255    0.87855   1.00
C3       0.54338    1.13478    0.84480   1.00
H1       0.53362    1.17652    0.84278   1.00
C2       0.57934    1.13194    0.86208   1.00
C5       0.34344    0.93370    0.83053   1.00
H2       0.30787    0.89831    0.81881   1.00
H2       0.36766    0.98670    0.82441   1.00
C5       0.30243    0.92880    0.84933   1.00
H2       0.33821    0.96272    0.86125   1.00
H2       0.27798    0.87555    0.85519   1.00
C5       0.24852    0.94892    0.84457   1.00
H2       0.21291    0.91555    0.83258   1.00
H2       0.27303    1.00284    0.83939   1.00
H2       0.21808    0.94357    0.85839   1.00
C5       0.52014    1.11619    0.79696   1.00
C5       0.59192    1.03787    0.89582   1.00
H2       0.54148    1.08435    0.79139   1.00
H2       0.56314    1.16868    0.80005   1.00
H2       0.55340    0.98428    0.89180   1.00
H2       0.56369    1.06238    0.90226   1.00
H2       0.63755    1.09264    0.93879   1.00
H2       0.51176    1.08791    0.75401   1.00
H2       0.56050    1.17854    0.75968   1.00
C2       0.44020    0.86788    0.78756   1.00
C3       0.50865    0.92065    0.78571   1.00
O2       0.54268    0.93158    0.76751   1.00
C3       0.40285    0.86727    0.80485   1.00
H1       0.35091    0.82662    0.80698   1.00
C3a      0.53738    0.97196    0.80069   1.00
H1       0.58856    1.01409    0.79846   1.00
C3b      0.43086    0.91954    0.81938   1.00
C4       0.49857    0.97253    0.81736   1.00
O_3      0.47920    1.08715    0.81431   1.00
C5       0.58695    0.90465    0.76826   1.00
H2       0.62552    0.92889    0.78061   1.00
C5       0.62342    0.91978    0.74776   1.00
H2       0.55795    0.84847    0.77082   1.00
H2       0.66559    0.97378    0.74775   1.00
H2       0.58643    0.91583    0.73595   1.00
C5       0.65097    0.87137    0.74288   1.00
H2       0.68349    0.87192    0.75558   1.00
H2       0.68198    0.88749    0.72873   1.00
H2       0.60853    0.81804    0.74028   1.00
C5       0.47498    1.11982    0.78048   1.00
H2       0.46332    1.16064    0.78455   1.00
H2       0.42561    1.07079    0.78047   1.00
C5       0.50849    1.13292    0.75940   1.00
H2       0.47752    1.14233    0.74817   1.00
C5       -0.02634   0.58054    0.91554   1.00
H2       -0.06911   0.59067    0.91341   1.00
H2       0.02105    0.63078    0.91410   1.00
C5       -0.03100   0.55026    0.93692   1.00
H2       -0.00916   0.59131    0.94858   1.00
H2       -0.00271   0.52179    0.93724   1.00
O_3      0.07152    0.45891    0.83268   1.00
C4       -0.02667   0.50047    0.83209   1.00
C3c      -0.01885   0.53498    0.85047   1.00
H1       0.02803    0.58196    0.85349   1.00
C3d      -0.08853   0.43986    0.82833   1.00
C3       -0.07056   0.50923    0.86530   1.00
O2       -0.06265   0.54989    0.88177   1.00
C3       -0.13961   0.41340    0.84322   1.00
H1       -0.18519   0.36552    0.83995   1.00
C2       -0.13224   0.44727    0.86198   1.00
C5       0.04681    0.39308    0.82448   1.00
H2       0.07990    0.39265    0.81203   1.00
H2       -0.00589   0.37223    0.81839   1.00
C5       0.04569    0.34715    0.84145   1.00
H2       0.01419    0.34908    0.85414   1.00
H2       0.09865    0.36809    0.84729   1.00
C5       0.01707    0.27368    0.83399   1.00
H2       0.04801    0.27144    0.82122   1.00
H2       -0.03663   0.25191    0.82881   1.00
H2       0.01805    0.24120    0.84648   1.00
C5       -0.12137   0.42440    0.79514   1.00
C5       -0.03182   0.53404    0.89791   1.00
H2       -0.08442   0.47830    0.79119   1.00
H2       -0.17129   0.42025    0.79901   1.00
H2       0.01990    0.54427    0.89334   1.00
H2       -0.06197   0.47929    0.90258   1.00
H2       -0.08522   0.51524    0.94141   1.00
H2       -0.09097   0.45807    0.75274   1.00
H2       -0.18067   0.42393    0.75864   1.00
C2       0.13158    0.57209    0.78739   1.00
C3       0.08507    0.59641    0.78745   1.00
O2       0.07880    0.62921    0.77066   1.00
C3       0.12646    0.52664    0.80293   1.00
H1       0.16238    0.50847    0.80362   1.00
C3a      0.03402    0.57375    0.80251   1.00
H1       -0.00358   0.58979    0.80167   1.00
C3b      0.07431    0.50251    0.81750   1.00
C4       0.02746    0.52591    0.81735   1.00
O_3      -0.09681   0.40128    0.81116   1.00
C5       0.11348    0.70034    0.77386   1.00
H2       0.09262    0.71394    0.78729   1.00
C5       0.10318    0.73273    0.75480   1.00
H2       0.16903    0.72045    0.77629   1.00
H2       0.05165    0.72752    0.75552   1.00
H2       0.10268    0.70193    0.74156   1.00
C5       0.15855    0.80815    0.75214   1.00
H2       0.16199    0.83702    0.76614   1.00
H2       0.14621    0.83145    0.73912   1.00
H2       0.20941    0.81347    0.74880   1.00
C5       -0.13087   0.37980    0.77676   1.00
H2       -0.17597   0.32842    0.77947   1.00
H2       -0.08562   0.37287    0.77560   1.00
C5       -0.13940   0.41117    0.75703   1.00
H2       -0.15326   0.37421    0.74436   1.00
C5       0.41890    0.39232    0.91547   1.00
H2       0.40893    0.33948    0.91330   1.00
H2       0.36861    0.38933    0.91400   1.00
C5       0.44897    0.41783    0.93687   1.00
H2       0.40783    0.39843    0.94850   1.00
H2       0.47730    0.47457    0.93723   1.00
O_3      0.54073    0.61251    0.83276   1.00
C4       0.49953    0.47285    0.83209   1.00
C3c      0.46490    0.44595    0.85044   1.00
H1       0.41783    0.44568    0.85344   1.00
C3d      0.56027    0.47182    0.82836   1.00
C3       0.49065    0.41998    0.86527   1.00
O2       0.44989    0.38703    0.88171   1.00
C3       0.58672    0.44720    0.84325   1.00
H1       0.63470    0.44967    0.84001   1.00
C2       0.55273    0.42049    0.86199   1.00
C5       0.60660    0.65383    0.82462   1.00
H2       0.60703    0.68740    0.81218   1.00
H2       0.62763    0.62214    0.81852   1.00
C5       0.65232    0.69858    0.84163   1.00
H2       0.65039    0.66509    0.85430   1.00
H2       0.63120    0.73044    0.84747   1.00
C5       0.72583    0.74364    0.83422   1.00
H2       0.72808    0.77688    0.82148   1.00
H2       0.74777    0.71187    0.82904   1.00
H2       0.75815    0.77705    0.84675   1.00
C5       0.57608    0.45478    0.79517   1.00
C5       0.46549    0.43356    0.89788   1.00
H2       0.52218    0.43772    0.79118   1.00
H2       0.58034    0.40907    0.79902   1.00
H2       0.45515    0.47499    0.89332   1.00
H2       0.52021    0.45825    0.90258   1.00
H2       0.48406    0.39873    0.94137   1.00
H2       0.54271    0.45174    0.75275   1.00
H2       0.57703    0.39632    0.75864   1.00
C2       0.42791    0.55949    0.78740   1.00
C3       0.40376    0.48869    0.78741   1.00
O2       0.37117    0.44972    0.77058   1.00
C3       0.47318    0.59977    0.80298   1.00
H1       0.49120    0.65383    0.80370   1.00
C3a      0.42642    0.46029    0.80247   1.00
H1       0.41053    0.40669    0.80160   1.00
C3b      0.49731    0.57175    0.81754   1.00
C4       0.47408    0.50153    0.81735   1.00
O_3      0.59896    0.50233    0.81123   1.00
C5       0.30002    0.41308    0.77374   1.00
H2       0.28640    0.37853    0.78714   1.00
C5       0.26786    0.37050    0.75464   1.00
H2       0.27976    0.44839    0.77617   1.00
H2       0.27322    0.32427    0.75534   1.00
H2       0.29873    0.40096    0.74143   1.00
C5       0.19242    0.35028    0.75193   1.00
H2       0.16346    0.32469    0.76590   1.00
H2       0.16930    0.31473    0.73888   1.00
H2       0.18698    0.39576    0.74861   1.00
C5       0.62079    0.49011    0.77683   1.00
H2       0.67221    0.49652    0.77956   1.00
H2       0.62758    0.54224    0.77570   1.00
C5       0.58965    0.45032    0.75707   1.00
H2       0.62671    0.47360    0.74442   1.00
C5       0.64271    0.40507    0.33974   1.00
H2       0.66291    0.37234    0.33417   1.00
H2       0.64516    0.40396    0.35656   1.00
C5       0.68805    0.47867    0.33180   1.00
H2       0.73454    0.50694    0.34134   1.00
H2       0.65899    0.50635    0.33195   1.00
O_3      0.29032    0.26267    0.34457   1.00
C4       0.35955    0.19249    0.33442   1.00
C3c      0.42801    0.23614    0.33976   1.00
H1       0.44147    0.24933    0.35551   1.00
C3d      0.34322    0.17515    0.31385   1.00
C3       0.47983    0.26414    0.32498   1.00
O2       0.54639    0.29959    0.33156   1.00
C3       0.39451    0.20398    0.29905   1.00
H1       0.37919    0.19110    0.28340   1.00
C2       0.46389    0.24880    0.30418   1.00
C5       0.24065    0.25366    0.33005   1.00
H2       0.18928    0.23418    0.33697   1.00
H2       0.23639    0.21728    0.31795   1.00
C5       0.26274    0.32274    0.32054   1.00
H2       0.31488    0.34308    0.31412   1.00
H2       0.26620    0.35846    0.33272   1.00
C5       0.21259    0.31711    0.30398   1.00
H2       0.16031    0.29638    0.31026   1.00
H2       0.21087    0.28332    0.29147   1.00
H2       0.22875    0.36833    0.29752   1.00
C5       0.25569    0.06673    0.30875   1.00
C5       0.56832    0.36994    0.33273   1.00
H2       0.25812    0.05125    0.32460   1.00
H2       0.28807    0.05411    0.29896   1.00
H2       0.53661    0.37883    0.34392   1.00
H2       0.56419    0.39141    0.31786   1.00
H2       0.70634    0.47878    0.31603   1.00
H2       0.14038    -0.05708   0.32380   1.00
H2       0.18009    -0.07153   0.30185   1.00
C2       0.19875    0.11187    0.37838   1.00
C3       0.23520    0.07765    0.37431   1.00
O2       0.20953    0.01086    0.38032   1.00
C3       0.21895    0.17443    0.36838   1.00
H1       0.19324    0.20275    0.37156   1.00
C3a      0.28915    0.10536    0.36014   1.00
H1       0.31398    0.07662    0.35633   1.00
C3b      0.27117    0.20074    0.35382   1.00
C4       0.30667    0.16614    0.34956   1.00
O_3      0.27607    0.13658    0.30762   1.00
C5       0.24334    0.00803    0.39796   1.00
H2       0.29928    0.03112    0.39528   1.00
C5       0.21292    -0.06737   0.40342   1.00
H2       0.23539    0.03536    0.41079   1.00
H2       0.23651    -0.08966   0.39347   1.00
H2       0.15771    -0.09363   0.39947   1.00
C5       0.22268    -0.07867   0.42595   1.00
H2       0.27753    -0.04781   0.43002   1.00
H2       0.20513    -0.13339   0.42896   1.00
H2       0.19206    -0.06447   0.43605   1.00
C5       0.18219    0.02649    0.30142   1.00
H2       0.18158    0.03301    0.28469   1.00
H2       0.15332    0.04942    0.30828   1.00
C5       0.14846    -0.04951   0.30709   1.00
H2       0.09765    -0.07839   0.29972   1.00
C5       0.59647    0.36975    0.33437   1.00
H2       0.57485    0.37753    0.32017   1.00
H2       0.57023    0.37996    0.34697   1.00
C5       0.58154    0.29524    0.33532   1.00
H2       0.52874    0.26051    0.34083   1.00
H2       0.61834    0.29157    0.34570   1.00
O_3      0.90863    0.63561    0.36756   1.00
C4       0.83348    0.64086    0.33429   1.00
C3c      0.76842    0.58289    0.33596   1.00
H1       0.73637    0.57784    0.34876   1.00
C3d      0.87404    0.64690    0.31734   1.00
C3       0.74406    0.53031    0.32142   1.00
O2       0.67698    0.47933    0.32274   1.00
C3       0.85046    0.59404    0.30304   1.00
H1       0.88434    0.59984    0.29069   1.00
C2       0.78509    0.53472    0.30462   1.00
C5       0.97684    0.65630    0.36249   1.00
H2       1.01402    0.69817    0.37247   1.00
H2       0.98816    0.67415    0.34644   1.00
C5       0.98647    0.59498    0.36511   1.00
H2       0.94804    0.55249    0.35557   1.00
H2       0.97566    0.57799    0.38123   1.00
C5       1.05892    0.61242    0.35919   1.00
H2       1.09759    0.65514    0.36856   1.00
H2       1.06895    0.62712    0.34291   1.00
H2       1.06545    0.56744    0.36163   1.00
C5       0.94051    0.75607    0.30612   1.00
C5       0.67219    0.42404    0.33405   1.00
H2       0.91174    0.77493    0.31511   1.00
H2       0.91789    0.74228    0.29061   1.00
H2       0.69118    0.44080    0.34981   1.00
H2       0.70296    0.40276    0.32730   1.00
H2       0.58500    0.27629    0.31995   1.00
H2       1.00288    0.90143    0.31223   1.00
H2       0.98929    0.87755    0.28560   1.00
C2       0.91342    0.79876    0.37917   1.00
C3       0.87282    0.80057    0.36320   1.00
O2       0.87233    0.85994    0.35886   1.00
C3       0.92387    0.74226    0.38043   1.00
H1       0.95323    0.73848    0.39277   1.00
C3a      0.84537    0.74754    0.34873   1.00
H1       0.81767    0.75162    0.33596   1.00
C3b      0.89834    0.69072    0.36566   1.00
C4       0.85887    0.69312    0.34962   1.00
O_3      0.94038    0.70040    0.31578   1.00
C5       0.81266    0.85656    0.36663   1.00
H2       0.76589    0.81283    0.35995   1.00
C5       0.81542    0.92342    0.36092   1.00
H2       0.81025    0.85093    0.38345   1.00
H2       0.79930    0.92004    0.34481   1.00
H2       0.86982    0.96464    0.36164   1.00
C5       0.77101    0.94028    0.37480   1.00
H2       0.71806    0.89635    0.37515   1.00
H2       0.76977    0.98600    0.36916   1.00
H2       0.79185    0.95239    0.39058   1.00
C5       1.01439    0.81302    0.30440   1.00
H2       1.04011    0.79849    0.29264   1.00
H2       1.04034    0.81659    0.31908   1.00
C5       1.02006    0.88201    0.29927   1.00
H2       1.07404    0.92061    0.29606   1.00
C5       0.76146    0.39620    0.33586   1.00
H2       0.79220    0.42043    0.32205   1.00
H2       0.79596    0.42188    0.34890   1.00
C5       0.69975    0.40791    0.33649   1.00
H2       0.71509    0.45955    0.34251   1.00
H2       0.65888    0.36884    0.34630   1.00
O_3      0.72478    0.08536    0.36641   1.00
C4       0.80741    0.16656    0.33430   1.00
C3c      0.81142    0.23015    0.33649   1.00
H1       0.83597    0.26104    0.34971   1.00
C3d      0.77607    0.12755    0.31682   1.00
C3       0.78318    0.25445    0.32194   1.00
O2       0.79633    0.32047    0.32386   1.00
C3       0.74676    0.15101    0.30249   1.00
H1       0.72113    0.11824    0.28969   1.00
C2       0.74969    0.21486    0.30459   1.00
C5       0.68001    0.01728    0.36049   1.00
H2       0.68536    -0.02004   0.37023   1.00
H2       0.68915    0.00856    0.34442   1.00
C5       0.60764    0.00429    0.36253   1.00
H2       0.60284    0.04280    0.35326   1.00
H2       0.59889    0.01252    0.37867   1.00
C5       0.55553    -0.06817   0.35569   1.00
H2       0.56036    -0.10688   0.36480   1.00
H2       0.56272    -0.07568   0.33939   1.00
H2       0.50290    -0.07721   0.35771   1.00
C5       0.82416    0.06608    0.30542   1.00
C5       0.74314    0.32138    0.33483   1.00
H2       0.87042    0.09520    0.31496   1.00
H2       0.83400    0.09051    0.29016   1.00
H2       0.73987    0.30077    0.35042   1.00
H2       0.69220    0.28983    0.32749   1.00
H2       0.67886    0.40544    0.32095   1.00
H2       0.91116    0.00827    0.31168   1.00
H2       0.90321    0.02443    0.28509   1.00
C2       0.88545    0.08649    0.37911   1.00
C3       0.92881    0.13007    0.36376   1.00
O2       0.99047    0.13384    0.35986   1.00
C3       0.81737    0.07307    0.37981   1.00
H1       0.78339    0.04135    0.39169   1.00
C3a      0.90310    0.15749    0.34932   1.00
H1       0.93582    0.18758    0.33699   1.00
C3b      0.79136    0.09864    0.36505   1.00
C4       0.83423    0.14110    0.34962   1.00
O_3      0.76624    0.06244    0.31468   1.00
C5       1.04427    0.19366    0.36846   1.00
H2       1.04598    0.24026    0.36216   1.00
C5       1.11059    0.19463    0.36321   1.00
H2       1.03885    0.19373    0.38527   1.00
H2       1.12480    0.21297    0.34732   1.00
H2       1.09959    0.14086    0.36343   1.00
C5       1.16947    0.23902    0.37784   1.00
H2       1.17616    0.29103    0.37864   1.00
H2       1.21807    0.24309    0.37255   1.00
H2       1.15962    0.21629    0.39339   1.00
C5       0.81054    -0.00655   0.30304   1.00
H2       0.77201    -0.03201   0.29081   1.00
H2       0.78711    -0.03475   0.31736   1.00
C5       0.87612    -0.00853   0.29834   1.00
H2       0.86331    -0.06149   0.29462   1.00
C5       0.84855    0.64810    0.74767   1.00
H2       0.86548    0.60978    0.74783   1.00
H2       0.89591    0.69869    0.74769   1.00
C5       0.80669    0.63914    0.72820   1.00
H2       0.84097    0.66439    0.71503   1.00
H2       0.77331    0.66168    0.73042   1.00
O_3      0.75137    0.72577    0.83948   1.00
C4       0.80717    0.64005    0.83454   1.00
C3c      0.83296    0.65122    0.81468   1.00
H1       0.87471    0.70076    0.81047   1.00
C3d      0.75339    0.57484    0.83979   1.00
C3       0.80493    0.59937    0.79991   1.00
O2       0.83809    0.61148    0.78157   1.00
C3       0.72451    0.52349    0.82501   1.00
H1       0.68177    0.47504    0.82956   1.00
C2       0.74949    0.53415    0.80480   1.00
C5       0.68981    0.69452    0.85058   1.00
H2       0.69158    0.72559    0.86393   1.00
H2       0.67760    0.64307    0.85612   1.00
C5       0.63339    0.68695    0.83647   1.00
H2       0.63287    0.65754    0.82285   1.00
H2       0.64578    0.73866    0.83118   1.00
C5       0.56395    0.65104    0.84716   1.00
H2       0.56425    0.67989    0.86085   1.00
H2       0.55045    0.59852    0.85182   1.00
H2       0.52359    0.64732    0.83675   1.00
C5       0.75807    0.54341    0.87236   1.00
C5       0.80958    0.63752    0.76756   1.00
H2       0.81182    0.58487    0.87431   1.00
H2       0.75792    0.49640    0.86720   1.00
H2       0.81621    0.68703    0.77312   1.00
H2       0.75374    0.60224    0.76516   1.00
H2       0.77452    0.58410    0.72408   1.00
H2       0.81094    0.57739    0.91317   1.00
H2       0.78334    0.48947    0.90648   1.00
C2       0.88508    0.79775    0.87948   1.00
C3       0.91618    0.75773    0.87654   1.00
O2       0.95971    0.75673    0.89101   1.00
C3       0.83038    0.78657    0.86663   1.00
H1       0.80664    0.81753    0.86815   1.00
C3a      0.89119    0.70690    0.86139   1.00
H1       0.91300    0.67411    0.86010   1.00
C3b      0.80424    0.73453    0.85201   1.00
C4       0.83453    0.69410    0.84932   1.00
O_3      0.72279    0.56268    0.85867   1.00
C5       1.02810    0.79809    0.88484   1.00
H2       1.03808    0.78006    0.87016   1.00
C5       1.07285    0.79336    0.90143   1.00
H2       1.04104    0.85221    0.88305   1.00
H2       1.07338    0.74482    0.89939   1.00
H2       1.04743    0.78932    0.91625   1.00
C5       1.14614    0.85468    0.90146   1.00
H2       1.16879    0.86119    0.88610   1.00
H2       1.17857    0.84669    0.91255   1.00
H2       1.14711    0.90270    0.90605   1.00
C5       0.72195    0.52937    0.89275   1.00
H2       0.67247    0.48072    0.89162   1.00
H2       0.70972    0.57051    0.89572   1.00
C5       0.76575    0.52617    0.91011   1.00
H2       0.73526    0.50889    0.92430   1.00
C5       0.59484    0.43456    0.82285   1.00
H2       0.63229    0.41654    0.82336   1.00
H2       0.59370    0.45286    0.83840   1.00
C5       0.61894    0.49366    0.80741   1.00
H2       0.65792    0.54273    0.81430   1.00
H2       0.57485    0.49871    0.80226   1.00
O_3      0.25058    0.19110    0.83055   1.00
C4       0.35983    0.16592    0.83451   1.00
C3c      0.41868    0.23021    0.83647   1.00
H1       0.42462    0.26148    0.84956   1.00
C3d      0.35355    0.12556    0.81749   1.00
C3       0.47013    0.25556    0.82156   1.00
O2       0.52980    0.31503    0.82570   1.00
C3       0.40407    0.15120    0.80243   1.00
H1       0.39589    0.11941    0.78930   1.00
C2       0.46356    0.21641    0.80406   1.00
C5       0.20158    0.14771    0.81627   1.00
H2       0.14927    0.11966    0.82286   1.00
H2       0.21442    0.10949    0.81020   1.00
C5       0.20150    0.19187    0.79893   1.00
H2       0.25421    0.22135    0.79271   1.00
H2       0.18800    0.22940    0.80513   1.00
C5       0.15113    0.14827    0.78230   1.00
H2       0.09846    0.11833    0.78843   1.00
H2       0.16593    0.11241    0.77561   1.00
H2       0.15068    0.18155    0.76997   1.00
C5       0.29887    0.01135    0.82398   1.00
C5       0.52627    0.37134    0.81789   1.00
H2       0.30370    0.01935    0.84068   1.00
H2       0.34319    0.00721    0.81841   1.00
H2       0.48383    0.37487    0.82530   1.00
H2       0.51686    0.36748    0.80116   1.00
H2       0.64374    0.48508    0.79394   1.00
H2       0.21358    -0.10366   0.84964   1.00
H2       0.27011    -0.11868   0.83362   1.00
C2       0.19817    0.08926    0.87817   1.00
C3       0.25427    0.07913    0.88103   1.00
O2       0.25026    0.03111    0.89470   1.00
C3       0.19868    0.12788    0.86123   1.00
H1       0.15736    0.13804    0.85890   1.00
C3a      0.30808    0.10589    0.86682   1.00
H1       0.34874    0.09438    0.86859   1.00
C3b      0.25121    0.15255    0.84677   1.00
C4       0.30642    0.14154    0.84947   1.00
O_3      0.29437    0.06420    0.81408   1.00
C5       0.28519    0.06313    0.91272   1.00
H2       0.34015    0.10005    0.90970   1.00
C5       0.27939    0.00686    0.92687   1.00
H2       0.26193    0.09086    0.92015   1.00
H2       0.31764    -0.00758   0.92210   1.00
H2       0.22825    -0.03884   0.92436   1.00
C5       0.28915    0.02795    0.94941   1.00
H2       0.33800    0.07658    0.95136   1.00
H2       0.29031    -0.01189   0.95901   1.00
H2       0.24610    0.03422    0.95512   1.00
C5       0.23343    -0.05510   0.81950   1.00
H2       0.23447    -0.06900   0.80336   1.00
H2       0.18972    -0.04588   0.82113   1.00
C5       0.22406    -0.11301   0.83377   1.00
H2       0.17985    -0.16208   0.82873   1.00
C5       0.57580    0.18730    0.82824   1.00
H2       0.59911    0.24356    0.82737   1.00
H2       0.56154    0.17369    0.84439   1.00
C5       0.51164    0.15303    0.81459   1.00
H2       0.46692    0.15036    0.82249   1.00
H2       0.49966    0.10049    0.81050   1.00
O_3      0.79403    0.05452    0.83357   1.00
C4       0.83415    0.19390    0.83449   1.00
C3c      0.77416    0.19648    0.83767   1.00
H1       0.74632    0.17749    0.85171   1.00
C3d      0.87020    0.21981    0.81621   1.00
C3       0.74865    0.22250    0.82278   1.00
O2       0.69451    0.23106    0.82794   1.00
C3       0.84424    0.24456    0.80120   1.00
H1       0.87235    0.26165    0.78713   1.00
C2       0.78325    0.24685    0.80407   1.00
C5       0.82927    0.03918    0.81872   1.00
H2       0.85481    0.01229    0.82525   1.00
H2       0.86881    0.08644    0.81104   1.00
C5       0.77739    -0.00715   0.80310   1.00
H2       0.75051    0.01894    0.79699   1.00
H2       0.73855    -0.05442   0.81090   1.00
C5       0.81192    -0.02444   0.78593   1.00
H2       0.83927    -0.05008   0.79195   1.00
H2       0.84902    0.02250    0.77768   1.00
H2       0.77303    -0.05954   0.77491   1.00
C5       0.98570    0.27060    0.81952   1.00
C5       0.63259    0.17263    0.82230   1.00
H2       0.98327    0.27318    0.83632   1.00
H2       0.99329    0.31936    0.81297   1.00
H2       0.62645    0.12696    0.83061   1.00
H2       0.63015    0.16137    0.80570   1.00
H2       0.51911    0.18307    0.80041   1.00
H2       1.10475    0.29566    0.84245   1.00
H2       1.12174    0.36427    0.82488   1.00
C2       0.91013    0.10838    0.87819   1.00
C3       0.92807    0.17759    0.87959   1.00
O2       0.98234    0.22213    0.89149   1.00
C3       0.86426    0.06794    0.86275   1.00
H1       0.84814    0.01437    0.86160   1.00
C3a      0.90158    0.20500    0.86540   1.00
H1       0.91885    0.25895    0.86596   1.00
C3b      0.83973    0.09586    0.84828   1.00
C4       0.85843    0.16491    0.84949   1.00
O_3      0.92663    0.21375    0.81170   1.00
C5       0.95862    0.23438    0.90992   1.00
H2       0.92523    0.25685    0.90721   1.00
C5       1.02147    0.28485    0.92203   1.00
H2       0.92932    0.18633    0.91877   1.00
H2       1.03942    0.33707    0.91602   1.00
H2       1.06270    0.27291    0.91884   1.00
C5       1.00779    0.28216    0.94502   1.00
H2       0.96306    0.28881    0.94781   1.00
H2       1.05277    0.32332    0.95309   1.00
H2       0.99816    0.23280    0.95176   1.00
C5       1.04639    0.26236    0.81389   1.00
H2       1.05584    0.27160    0.79730   1.00
H2       1.03227    0.20835    0.81668   1.00
C5       1.11059    0.31065    0.82612   1.00
H2       1.15532    0.30839    0.82016   1.00
C5       -0.03572   0.36513    0.41240   1.00
H2       -0.04889   0.40053    0.42018   1.00
H2       0.02043    0.38841    0.41389   1.00
C5       -0.07257   0.29475    0.42301   1.00
H2       -0.04429   0.29477    0.43682   1.00
H2       -0.07682   0.25446    0.41244   1.00
O_3      -0.00445   0.38603    0.30726   1.00
C4       -0.02623   0.47417    0.33224   1.00
C3c      -0.01383   0.46111    0.35215   1.00
H1       0.03678    0.47216    0.35642   1.00
C3d      -0.09231   0.46032    0.32706   1.00
C3       -0.06632   0.43285    0.36672   1.00
O2       -0.04863   0.42928    0.38647   1.00
C3       -0.14498   0.43097    0.34143   1.00
H1       -0.19535   0.41899    0.33655   1.00
C2       -0.13349   0.41675    0.36156   1.00
C5       -0.05229   0.35814    0.29131   1.00
H2       -0.02725   0.36766    0.27617   1.00
H2       -0.08707   0.37975    0.29122   1.00
C5       -0.09410   0.28160    0.29467   1.00
H2       -0.11758   0.27210    0.31004   1.00
H2       -0.05896   0.26049    0.29455   1.00
C5       -0.14924   0.24738    0.27833   1.00
H2       -0.12618   0.25707    0.26293   1.00
H2       -0.18574   0.26672    0.27891   1.00
H2       -0.17828   0.19130    0.28078   1.00
C5       -0.09433   0.53486    0.30419   1.00
C5       -0.05507   0.36480    0.39013   1.00
H2       -0.03920   0.57211    0.30632   1.00
H2       -0.12438   0.54836    0.31471   1.00
H2       -0.01978   0.35726    0.38006   1.00
H2       -0.10789   0.32178    0.38721   1.00
H2       -0.12467   0.28185    0.42820   1.00
H2       -0.02747   0.64033    0.27399   1.00
H2       -0.09755   0.64329    0.28646   1.00
C2       0.12934    0.55280    0.28664   1.00
C3       0.12171    0.59792    0.29972   1.00
O2       0.15145    0.66626    0.29497   1.00
C3       0.08690    0.48183    0.28969   1.00
H1       0.09266    0.44596    0.28028   1.00
C3a      0.07134    0.57157    0.31500   1.00
H1       0.06352    0.60675    0.32413   1.00
C3b      0.03542    0.45580    0.30448   1.00
C4       0.02718    0.50071    0.31726   1.00
O_3      -0.10838   0.46740    0.30729   1.00
C5       0.21116    0.70448    0.30656   1.00
H2       0.19977    0.69825    0.32315   1.00
C5       0.24029    0.77939    0.30069   1.00
H2       0.24953    0.68866    0.30322   1.00
H2       0.21106    0.79954    0.30887   1.00
H2       0.23015    0.78092    0.28422   1.00
C5       0.31717    0.82347    0.30522   1.00
H2       0.32700    0.81708    0.32136   1.00
H2       0.33519    0.87836    0.30236   1.00
H2       0.34803    0.80936    0.29519   1.00
C5       -0.11392   0.53987    0.28243   1.00
H2       -0.17058   0.51168    0.28127   1.00
H2       -0.09514   0.51312    0.27242   1.00
C5       -0.08408   0.61440    0.27555   1.00
H2       -0.10512   0.61610    0.26047   1.00
C5       0.38591    1.04707    0.40867   1.00
H2       0.43079    1.05585    0.41780   1.00
H2       0.34865    0.99167    0.40989   1.00
C5       0.35544    1.08927    0.41760   1.00
H2       0.32210    1.06268    0.43083   1.00
H2       0.32495    1.09743    0.40584   1.00
O_3      0.40167    1.01465    0.30411   1.00
C4       0.50036    1.02616    0.33226   1.00
C3c      0.46967    1.01597    0.35142   1.00
H1       0.42596    0.96708    0.35511   1.00
C3d      0.55788    1.08993    0.32786   1.00
C3       0.49403    1.06855    0.36597   1.00
O2       0.46676    1.05236    0.38518   1.00
C3       0.58145    1.14279    0.34217   1.00
H1       0.62421    1.19154    0.33785   1.00
C2       0.55056    1.13358    0.36154   1.00
C5       0.42988    1.06260    0.28821   1.00
H2       0.41679    1.03787    0.27298   1.00
H2       0.48657    1.09316    0.28946   1.00
C5       0.40080    1.11007    0.28981   1.00
H2       0.41222    1.13333    0.30523   1.00
H2       0.34426    1.07912    0.28835   1.00
C5       0.43081    1.16556    0.27344   1.00
H2       0.42000    1.14268    0.25800   1.00
H2       0.48698    1.19799    0.27531   1.00
H2       0.40784    1.19884    0.27457   1.00
C5       0.63626    1.08388    0.30757   1.00
C5       0.41193    1.06521    0.38684   1.00
H2       0.61301    1.02798    0.30990   1.00
H2       0.67747    1.11090    0.31903   1.00
H2       0.37072    1.03263    0.37592   1.00
H2       0.42757    1.11953    0.38350   1.00
H2       0.39639    1.13983    0.42330   1.00
H2       0.67367    1.00955    0.27974   1.00
H2       0.74631    1.07546    0.29352   1.00
C2       0.42403    0.87082    0.28660   1.00
C3       0.47080    0.87340    0.30122   1.00
O2       0.50516    0.83815    0.29819   1.00
C3       0.40092    0.91831    0.28809   1.00
H1       0.36379    0.91656    0.27744   1.00
C3a      0.49452    0.92379    0.31650   1.00
H1       0.53324    0.92755    0.32688   1.00
C3b      0.42626    0.96972    0.30290   1.00
C4       0.47354    0.97288    0.31724   1.00
O_3      0.58675    1.10421    0.30871   1.00
C5       0.47544    0.77789    0.30988   1.00
H2       0.47695    0.78941    0.32640   1.00
C5       0.51693    0.74253    0.30596   1.00
H2       0.42138    0.74332    0.30534   1.00
H2       0.56419    0.76807    0.31529   1.00
H2       0.53349    0.75183    0.28980   1.00
C5       0.47670    0.66542    0.31050   1.00
H2       0.45599    0.65692    0.32618   1.00
H2       0.51019    0.64266    0.30912   1.00
H2       0.43393    0.63770    0.29949   1.00
C5       0.66742    1.10169    0.28643   1.00
H2       0.70051    1.15809    0.28539   1.00
H2       0.62540    1.08669    0.27525   1.00
C5       0.70809    1.06570    0.28147   1.00
H2       0.73582    1.08527    0.26690   1.00
C5       0.66019    0.61358    0.40882   1.00
H2       0.62410    0.56855    0.41791   1.00
H2       0.64185    0.65068    0.41005   1.00
C5       0.73279    0.64418    0.41781   1.00
H2       0.73928    0.67734    0.43108   1.00
H2       0.77151    0.67489    0.40610   1.00
O_3      0.61306    0.59878    0.30423   1.00
C4       0.52581    0.49964    0.33226   1.00
C3c      0.54602    0.53014    0.35146   1.00
H1       0.54064    0.57371    0.35517   1.00
C3d      0.53235    0.44231    0.32783   1.00
C3       0.57425    0.50579    0.36600   1.00
O2       0.58505    0.53284    0.38524   1.00
C3       0.56164    0.41875    0.34214   1.00
H1       0.56786    0.37614    0.33779   1.00
C2       0.58304    0.44945    0.36154   1.00
C5       0.63312    0.57087    0.28831   1.00
H2       0.62156    0.58406    0.27309   1.00
H2       0.60715    0.51418    0.28951   1.00
C5       0.70969    0.60018    0.28998   1.00
H2       0.72144    0.58867    0.30540   1.00
H2       0.73512    0.65673    0.28858   1.00
C5       0.73552    0.57051    0.27361   1.00
H2       0.72353    0.58141    0.25817   1.00
H2       0.71193    0.51434    0.27543   1.00
H2       0.79178    0.59365    0.27479   1.00
C5       0.44828    0.36396    0.30743   1.00
C5       0.65262    0.58781    0.38698   1.00
H2       0.41544    0.38701    0.30976   1.00
H2       0.43410    0.32266    0.31886   1.00
H2       0.66122    0.62909    0.37609   1.00
H2       0.69148    0.57239    0.38364   1.00
H2       0.74252    0.60329    0.42350   1.00
H2       0.33676    0.32648    0.27951   1.00
H2       0.33015    0.25381    0.29324   1.00
C2       0.44682    0.57599    0.28660   1.00
C3       0.40257    0.52899    0.30117   1.00
O2       0.33300    0.49445    0.29807   1.00
C3       0.51745    0.59932    0.28815   1.00
H1       0.55286    0.63663    0.27755   1.00
C3a      0.42923    0.50525    0.31645   1.00
H1       0.39425    0.46636    0.32678   1.00
C3b      0.54351    0.57398    0.30296   1.00
C4       0.49934    0.52646    0.31724   1.00
O_3      0.51805    0.41364    0.30865   1.00
C5       0.30216    0.52386    0.30976   1.00
H2       0.31202    0.52222    0.32629   1.00
C5       0.22536    0.48219    0.30576   1.00
H2       0.32152    0.57794    0.30527   1.00
H2       0.20369    0.43484    0.31506   1.00
H2       0.21831    0.46581    0.28959   1.00
C5       0.18819    0.52215    0.31031   1.00
H2       0.20018    0.54269    0.32601   1.00
H2       0.13198    0.48852    0.30888   1.00
H2       0.20322    0.56501    0.29934   1.00
C5       0.43525    0.33304    0.28627   1.00
H2       0.45875    0.30012    0.28522   1.00
H2       0.46227    0.37520    0.27513   1.00
C5       0.35864    0.29220    0.28123   1.00
H2       0.35073    0.26465    0.26664   1.00
C5       0.31468    0.37442    0.24398   1.00
H2       0.36321    0.42177    0.24046   1.00
H2       0.32437    0.33170    0.24103   1.00
C5       0.29613    0.37504    0.26654   1.00
H2       0.32494    0.35850    0.27648   1.00
H2       0.24050    0.34022    0.26887   1.00
O_3      0.06105    0.24835    0.17013   1.00
C4       0.19373    0.36007    0.16541   1.00
C3c      0.23123    0.35763    0.18203   1.00
H1       0.23988    0.31505    0.18366   1.00
C3d      0.18387    0.41650    0.16342   1.00
C3       0.25724    0.40921    0.19691   1.00
O2       0.30035    0.40762    0.21134   1.00
C3       0.20858    0.46728    0.17841   1.00
H1       0.19769    0.50833    0.17661   1.00
C2       0.24598    0.46523    0.19543   1.00
C5       0.01008    0.26407    0.16479   1.00
H2       -0.02576   0.22831    0.15318   1.00
H2       0.03305    0.31701    0.15870   1.00
C5       -0.03017   0.25831    0.18385   1.00
H2       0.00594    0.29263    0.19564   1.00
H2       -0.05338   0.20511    0.18969   1.00
C5       -0.08536   0.27703    0.17953   1.00
H2       -0.12131   0.24326    0.16767   1.00
H2       -0.06206   0.33090    0.17438   1.00
H2       -0.11521   0.27106    0.19354   1.00
C5       0.18275    0.44843    0.13068   1.00
C5       0.26268    0.37245    0.22874   1.00
H2       0.20468    0.41741    0.12485   1.00
H2       0.22523    0.50127    0.13367   1.00
H2       0.22469    0.31862    0.22479   1.00
H2       0.23400    0.39606    0.23546   1.00
H2       0.31008    0.42757    0.27159   1.00
H2       0.17241    0.42032    0.08769   1.00
H2       0.22003    0.51100    0.09335   1.00
C2       0.10683    0.20114    0.12093   1.00
C3       0.17474    0.25481    0.11880   1.00
O2       0.20784    0.26638    0.10041   1.00
C3       0.07008    0.19970    0.13846   1.00
H1       0.01861    0.15836    0.14080   1.00
C3a      0.20352    0.30617    0.13376   1.00
H1       0.25419    0.34896    0.13134   1.00
C3b      0.09809    0.25199    0.15299   1.00
C4       0.16525    0.30587    0.15070   1.00
O_3      0.14300    0.41880    0.14820   1.00
C5       0.25321    0.24072    0.10076   1.00
H2       0.29237    0.26552    0.11293   1.00
C5       0.28855    0.25650    0.08007   1.00
H2       0.22527    0.18453    0.10331   1.00
H2       0.32999    0.31083    0.07996   1.00
H2       0.25058    0.25180    0.06850   1.00
C5       0.31716    0.20924    0.07482   1.00
H2       0.35075    0.21048    0.08730   1.00
H2       0.34734    0.22587    0.06052   1.00
H2       0.27529    0.15557    0.07232   1.00
C5       0.13607    0.45104    0.11452   1.00
H2       0.12364    0.49115    0.11882   1.00
H2       0.08725    0.40148    0.11467   1.00
C5       0.16844    0.46475    0.09326   1.00
H2       0.13629    0.47338    0.08228   1.00
C5       0.38416    0.57952    0.17036   1.00
H2       0.39493    0.56520    0.18544   1.00
H2       0.39840    0.55245    0.15904   1.00
C5       0.30729    0.55582    0.16873   1.00
H2       0.27729    0.50072    0.16474   1.00
H2       0.29892    0.58596    0.15691   1.00
O_3      0.62630    0.89149    0.12963   1.00
C4       0.64089    0.83360    0.16572   1.00
C3c      0.58783    0.76543    0.16563   1.00
H1       0.58667    0.73095    0.15409   1.00
C3d      0.64198    0.87744    0.18106   1.00
C3       0.53514    0.74091    0.18014   1.00
O2       0.48971    0.67189    0.18060   1.00
C3       0.58890    0.85352    0.19530   1.00
H1       0.59062    0.88964    0.20634   1.00
C2       0.53445    0.78492    0.19530   1.00
C5       0.63952    0.95888    0.13234   1.00
H2       0.67923    0.99537    0.12167   1.00
H2       0.65678    0.97691    0.14814   1.00
C5       0.57354    0.95903    0.12831   1.00
H2       0.53335    0.92115    0.13858   1.00
H2       0.55714    0.94156    0.11244   1.00
C5       0.58280    1.03021    0.13164   1.00
H2       0.62319    1.06838    0.12154   1.00
H2       0.59687    1.04670    0.14767   1.00
H2       0.53446    1.02965    0.12819   1.00
C5       0.74887    0.95663    0.19146   1.00
C5       0.43202    0.65664    0.16862   1.00
H2       0.77253    0.92951    0.18398   1.00
H2       0.73696    0.93903    0.20752   1.00
H2       0.44753    0.67117    0.15250   1.00
H2       0.40557    0.68456    0.17375   1.00
H2       0.28665    0.56162    0.18354   1.00
H2       0.89473    1.03101    0.18540   1.00
H2       0.87089    1.02410    0.21199   1.00
C2       0.79828    0.91312    0.12068   1.00
C3       0.80510    0.88105    0.13817   1.00
O2       0.86785    0.88967    0.14350   1.00
C3       0.73726    0.91509    0.11805   1.00
H1       0.72972    0.93770    0.10458   1.00
C3a      0.75232    0.85359    0.15272   1.00
H1       0.75997    0.83270    0.16657   1.00
C3b      0.68582    0.88969    0.13286   1.00
C4       0.69312    0.85877    0.15038   1.00
O_3      0.69017    0.94618    0.18092   1.00
C5       0.87188    0.83151    0.13808   1.00
H2       0.83146    0.78483    0.14581   1.00
C5       0.94213    0.84455    0.14477   1.00
H2       0.86643    0.82304    0.12137   1.00
H2       0.94040    0.83449    0.16136   1.00
H2       0.97886    0.89991    0.14262   1.00
C5       0.96570    0.80110    0.13302   1.00
H2       0.92593    0.74638    0.13401   1.00
H2       1.01411    0.80769    0.13945   1.00
H2       0.97606    0.81676    0.11673   1.00
C5       0.79976    1.03283    0.19123   1.00
H2       0.78102    1.05860    0.20166   1.00
H2       0.80044    1.05248    0.17569   1.00
C5       0.87190    1.04865    0.19727   1.00
H2       0.90587    1.10458    0.19900   1.00
C5       0.39606    0.76124    0.16411   1.00
H2       0.42033    0.79199    0.17792   1.00
H2       0.42172    0.79570    0.15106   1.00
C5       0.40770    0.69949    0.16349   1.00
H2       0.45931    0.71477    0.15746   1.00
H2       0.36859    0.65861    0.15369   1.00
O_3      0.08524    0.72474    0.13362   1.00
C4       0.16656    0.80741    0.16570   1.00
C3c      0.23012    0.81136    0.16350   1.00
H1       0.26098    0.83586    0.15027   1.00
C3d      0.12758    0.77614    0.18319   1.00
C3       0.25442    0.78312    0.17805   1.00
O2       0.32041    0.79622    0.17612   1.00
C3       0.15104    0.74682    0.19752   1.00
H1       0.11829    0.72124    0.21032   1.00
C2       0.21486    0.74970    0.19541   1.00
C5       0.01717    0.68003    0.13955   1.00
H2       -0.02015   0.68539    0.12982   1.00
H2       0.00850    0.68921    0.15562   1.00
C5       0.00412    0.60763    0.13752   1.00
H2       0.04263    0.60282    0.14679   1.00
H2       0.01230    0.59883    0.12138   1.00
C5       -0.06834   0.55558    0.14438   1.00
H2       -0.10705   0.56042    0.13527   1.00
H2       -0.07580   0.56282    0.16068   1.00
H2       -0.07743   0.50293    0.14236   1.00
C5       0.06621    0.82433    0.19459   1.00
C5       0.32126    0.74298    0.16515   1.00
H2       0.09534    0.87056    0.18504   1.00
H2       0.09068    0.83418    0.20985   1.00
H2       0.30062    0.73968    0.14956   1.00
H2       0.28969    0.69206    0.17251   1.00
H2       0.40525    0.67862    0.17904   1.00
H2       0.00849    0.91140    0.18833   1.00
H2       0.02469    0.90350    0.21492   1.00
C2       0.08649    0.88545    0.12089   1.00
C3       0.13012    0.92883    0.13623   1.00
O2       0.13395    0.99052    0.14012   1.00
C3       0.07301    0.81735    0.12020   1.00
H1       0.04125    0.78336    0.10834   1.00
C3a      0.15754    0.90312    0.15067   1.00
H1       0.18768    0.93585    0.16299   1.00
C3b      0.09859    0.79134    0.13496   1.00
C4       0.14110    0.83423    0.15038   1.00
O_3      0.06249    0.76636    0.18534   1.00
C5       0.19377    1.04427    0.13150   1.00
H2       0.24037    1.04596    0.13780   1.00
C5       0.19481    1.11064    0.13675   1.00
H2       0.19381    1.03881    0.11470   1.00
H2       0.21320    1.12487    0.15263   1.00
H2       0.14107    1.09967    0.13654   1.00
C5       0.23920    1.16946    0.12210   1.00
H2       0.29120    1.17611    0.12129   1.00
H2       0.24333    1.21810    0.12738   1.00
H2       0.21644    1.15960    0.10656   1.00
C5       -0.00639   0.81077    0.19698   1.00
H2       -0.03184   0.77228    0.20922   1.00
H2       -0.03464   0.78732    0.18267   1.00
C5       -0.00830   0.87639    0.20168   1.00
H2       -0.06124   0.86363    0.20541   1.00
C5       1.02015    0.58160    0.58233   1.00
H2       1.05966    0.63632    0.58347   1.00
H2       0.97032    0.57992    0.58297   1.00
C5       1.02794    0.55255    0.56189   1.00
H2       1.00348    0.56560    0.54937   1.00
H2       1.00392    0.49610    0.56289   1.00
O_3      0.93765    0.38538    0.67014   1.00
C4       1.02663    0.52719    0.66790   1.00
C3c      1.01621    0.54701    0.64866   1.00
H1       0.96727    0.54168    0.64495   1.00
C3d      1.09108    0.53547    0.67252   1.00
C3       1.06802    0.57297    0.63386   1.00
O2       1.05689    0.59898    0.61633   1.00
C3       1.14236    0.56009    0.65769   1.00
H1       1.19017    0.56328    0.66169   1.00
C2       1.13245    0.57967    0.63808   1.00
C5       0.96732    0.35108    0.67993   1.00
H2       0.93575    0.31926    0.69287   1.00
H2       1.01918    0.38791    0.68580   1.00
C5       0.97319    0.30467    0.66441   1.00
H2       1.00311    0.33620    0.65122   1.00
H2       0.92108    0.26772    0.65879   1.00
C5       1.00734    0.26707    0.67365   1.00
H2       0.97798    0.23585    0.68692   1.00
H2       1.06024    0.30384    0.67862   1.00
H2       1.00982    0.23228    0.66222   1.00
C5       1.12306    0.56342    0.70553   1.00
C5       1.02954    0.54784    0.60123   1.00
H2       1.08270    0.57672    0.70840   1.00
H2       1.17084    0.61062    0.70102   1.00
H2       0.97943    0.50466    0.60629   1.00
H2       1.06354    0.52646    0.59778   1.00
H2       1.08283    0.57496    0.55764   1.00
H2       1.09013    0.57406    0.74721   1.00
H2       1.17858    0.63396    0.74096   1.00
C2       0.86879    0.44080    0.71272   1.00
C3       0.91050    0.51227    0.71118   1.00
O2       0.91290    0.55395    0.72681   1.00
C3       0.87838    0.39938    0.69856   1.00
H1       0.84613    0.34459    0.69900   1.00
C3a      0.96138    0.54039    0.69607   1.00
H1       0.99543    0.59497    0.69582   1.00
C3b      0.93045    0.42740    0.68397   1.00
C4       0.97256    0.49839    0.68265   1.00
O_3      1.10235    0.51198    0.69067   1.00
C5       0.87317    0.58409    0.72198   1.00
H2       0.89187    0.61533    0.70786   1.00
C5       0.87939    0.63016    0.73981   1.00
H2       0.81861    0.54450    0.71983   1.00
H2       0.92874    0.67881    0.73844   1.00
H2       0.88260    0.60490    0.75394   1.00
C5       0.81951    0.64422    0.74103   1.00
H2       0.81371    0.66438    0.72626   1.00
H2       0.82867    0.68231    0.75309   1.00
H2       0.77073    0.59700    0.74499   1.00
C5       1.13605    0.53583    0.72506   1.00
H2       1.18385    0.53372    0.72322   1.00
H2       1.09382    0.48237    0.72714   1.00
C5       1.14068    0.57926    0.74361   1.00
H2       1.15717    0.56200    0.75714   1.00
C5       0.58179    -0.02685   0.58463   1.00
H2       0.59156    -0.06984   0.58683   1.00
H2       0.63215    0.02035    0.58613   1.00
C5       0.55197    -0.03131   0.56320   1.00
H2       0.59324    -0.00968   0.55160   1.00
H2       0.52380    -0.00274   0.56278   1.00
O_3      0.45973    0.07213    0.66713   1.00
C4       0.50046    -0.02668   0.66791   1.00
C3c      0.53525    -0.01905   0.64960   1.00
H1       0.58243    0.02766    0.64663   1.00
C3d      0.43957    -0.08833   0.67161   1.00
C3       0.50950    -0.07076   0.63477   1.00
O2       0.55038    -0.06309   0.61837   1.00
C3       0.41313    -0.13940   0.65671   1.00
H1       0.36504    -0.18481   0.65992   1.00
C2       0.44727    -0.13222   0.63801   1.00
C5       0.39381    0.04779    0.67522   1.00
H2       0.39338    0.08099    0.68763   1.00
H2       0.37255    -0.00496   0.68132   1.00
C5       0.34834    0.04698    0.65815   1.00
H2       0.35028    0.01536    0.64550   1.00
H2       0.36967    0.09998    0.65230   1.00
C5       0.27478    0.01876    0.66549   1.00
H2       0.27253    0.04981    0.67821   1.00
H2       0.25263    -0.03497   0.67067   1.00
H2       0.24266    0.01997    0.65292   1.00
C5       0.42333    -0.12119   0.70480   1.00
C5       0.53509    -0.03204   0.60217   1.00
H2       0.47723    -0.08448   0.70882   1.00
H2       0.41893    -0.17125   0.70097   1.00
H2       0.54556    0.01979    0.60671   1.00
H2       0.48040    -0.06192   0.59741   1.00
H2       0.51679    -0.08547   0.55869   1.00
H2       0.45632    -0.09094   0.74723   1.00
H2       0.42179    -0.18071   0.74135   1.00
C2       0.57209    0.13161    0.71260   1.00
C3       0.59602    0.08477    0.71264   1.00
O2       0.62836    0.07825    0.72951   1.00
C3       0.52705    0.12679    0.69697   1.00
H1       0.50921    0.16296    0.69621   1.00
C3a      0.57336    0.03371    0.69758   1.00
H1       0.58908    -0.00413   0.69850   1.00
C3b      0.50292    0.07462    0.68240   1.00
C4       0.52592    0.02746    0.68265   1.00
O_3      0.40075    -0.09638   0.68870   1.00
C5       0.69953    0.11256    0.72642   1.00
H2       0.71319    0.09155    0.71304   1.00
C5       0.73140    0.10200    0.74556   1.00
H2       0.71999    0.16817    0.72398   1.00
H2       0.72586    0.05034    0.74488   1.00
H2       0.70045    0.10171    0.75874   1.00
C5       0.80688    0.15704    0.74833   1.00
H2       0.83594    0.16031    0.73439   1.00
H2       0.82978    0.14450    0.76141   1.00
H2       0.81247    0.20804    0.75162   1.00
C5       0.37848    -0.13043   0.72309   1.00
H2       0.32702    -0.17533   0.72032   1.00
H2       0.37186    -0.08498   0.72419   1.00
C5       0.40933    -0.13921   0.74289   1.00
H2       0.37217    -0.15287   0.75550   1.00
C5       0.39237    0.41894    0.58453   1.00
H2       0.33953    0.40896    0.58669   1.00
H2       0.38940    0.36865    0.58600   1.00
C5       0.41789    0.44902    0.56313   1.00
H2       0.39850    0.40789    0.55150   1.00
H2       0.47464    0.47737    0.56277   1.00
O_3      0.61251    0.54075    0.66724   1.00
C4       0.47285    0.49953    0.66791   1.00
C3c      0.44596    0.46490    0.64956   1.00
H1       0.44571    0.41784    0.64656   1.00
C3d      0.47180    0.56026    0.67165   1.00
C3       0.42000    0.49066    0.63473   1.00
O2       0.38706    0.44991    0.61829   1.00
C3       0.44718    0.58671    0.65675   1.00
H1       0.44964    0.63468    0.66000   1.00
C2       0.42049    0.55273    0.63801   1.00
C5       0.65383    0.60662    0.67539   1.00
H2       0.68739    0.60705    0.68783   1.00
H2       0.62212    0.62764    0.68149   1.00
C5       0.69858    0.65236    0.65838   1.00
H2       0.66509    0.65042    0.64571   1.00
H2       0.73045    0.63125    0.65254   1.00
C5       0.74362    0.72586    0.66579   1.00
H2       0.77686    0.72811    0.67854   1.00
H2       0.71184    0.74779    0.67097   1.00
H2       0.77704    0.75820    0.65327   1.00
C5       0.45474    0.57605    0.70483   1.00
C5       0.43359    0.46552    0.60212   1.00
H2       0.43769    0.52214    0.70882   1.00
H2       0.40902    0.58030    0.70098   1.00
H2       0.47504    0.45519    0.60668   1.00
H2       0.45829    0.52025    0.59742   1.00
H2       0.39878    0.48411    0.55863   1.00
H2       0.45168    0.54266    0.74725   1.00
H2       0.39626    0.57696    0.74136   1.00
C2       0.55949    0.42791    0.71260   1.00
C3       0.48868    0.40375    0.71258   1.00
O2       0.44971    0.37114    0.72941   1.00
C3       0.59978    0.47319    0.69703   1.00
H1       0.65384    0.49122    0.69631   1.00
C3a      0.46029    0.42641    0.69753   1.00
H1       0.40669    0.41051    0.69840   1.00
C3b      0.57175    0.49732    0.68246   1.00
C4       0.50153    0.47409    0.68265   1.00
O_3      0.50230    0.59894    0.68878   1.00
C5       0.41308    0.30000    0.72625   1.00
H2       0.37854    0.28637    0.71285   1.00
C5       0.37050    0.26782    0.74535   1.00
H2       0.44840    0.27974    0.72383   1.00
H2       0.32426    0.27317    0.74464   1.00
H2       0.40095    0.29868    0.75856   1.00
C5       0.35028    0.19238    0.74806   1.00
H2       0.32471    0.16343    0.73408   1.00
H2       0.31474    0.16925    0.76110   1.00
H2       0.39577    0.18695    0.75137   1.00
C5       0.49005    0.62075    0.72318   1.00
H2       0.49645    0.67217    0.72045   1.00
H2       0.54219    0.62755    0.72431   1.00
C5       0.45026    0.58959    0.74294   1.00
H2       0.47353    0.62664    0.75558   1.00
C5       0.28926    -0.31683   0.17515   1.00
H2       0.25124    -0.31796   0.16429   1.00
H2       0.27051    -0.31392   0.19048   1.00
C5       0.29290    -0.38299   0.17298   1.00
H2       0.25062    -0.42569   0.18147   1.00
H2       0.34249    -0.37475   0.17891   1.00
O_3      0.58497    -0.00575   0.19145   1.00
C4       0.47311    -0.02593   0.16768   1.00
C3c      0.42006    -0.09185   0.17232   1.00
H1       0.39914    -0.10323   0.18749   1.00
C3d      0.49899    -0.01189   0.14775   1.00
C3       0.39389    -0.14416   0.15768   1.00
O2       0.33662    -0.20484   0.16262   1.00
C3       0.47394    -0.06420   0.13323   1.00
H1       0.49702    -0.05164   0.11835   1.00
C2       0.42081    -0.13134   0.13774   1.00
C5       0.64753    0.02948    0.18093   1.00
H2       0.68577    0.07580    0.18925   1.00
H2       0.64025    0.04551    0.16556   1.00
C5       0.67549    -0.01876   0.17867   1.00
H2       0.63648    -0.06587   0.17086   1.00
H2       0.68316    -0.03391   0.19410   1.00
C5       0.74258    0.01483    0.16671   1.00
H2       0.78163    0.06217    0.17435   1.00
H2       0.73450    0.02784    0.15106   1.00
H2       0.76301    -0.02064   0.16560   1.00
C5       0.53192    0.09598    0.13700   1.00
C5       0.35580    -0.25091   0.17049   1.00
H2       0.50498    0.10498    0.14968   1.00
H2       0.49700    0.07641    0.12366   1.00
H2       0.38635    -0.22982   0.18463   1.00
H2       0.38754    -0.26112   0.15960   1.00
H2       0.28710    -0.39974   0.15679   1.00
H2       0.56750    0.23507    0.14546   1.00
H2       0.53439    0.20817    0.11995   1.00
C2       0.56005    0.13317    0.21211   1.00
C3       0.50173    0.12166    0.20112   1.00
O2       0.48238    0.17055    0.20070   1.00
C3       0.58642    0.08900    0.20876   1.00
H1       0.62994    0.09536    0.21731   1.00
C3a      0.47246    0.06814    0.18683   1.00
H1       0.43022    0.06243    0.17772   1.00
C3b      0.55853    0.03721    0.19408   1.00
C4       0.50119    0.02649    0.18295   1.00
O_3      0.55462    0.05066    0.14280   1.00
C5       0.42705    0.15241    0.21398   1.00
H2       0.38215    0.10235    0.20967   1.00
C5       0.40801    0.20828    0.21238   1.00
H2       0.44146    0.14912    0.22993   1.00
H2       0.37684    0.19910    0.19844   1.00
H2       0.45613    0.25761    0.21007   1.00
C5       0.36948    0.21195    0.23119   1.00
H2       0.32456    0.16089    0.23421   1.00
H2       0.35153    0.24909    0.22876   1.00
H2       0.40317    0.22967    0.24487   1.00
C5       0.59453    0.16345    0.13135   1.00
H2       0.61460    0.15689    0.11661   1.00
H2       0.63478    0.17530    0.14293   1.00
C5       0.57859    0.22196    0.13014   1.00
H2       0.62329    0.26850    0.12396   1.00
C5       1.06230    0.37288    0.09628   1.00
H2       1.06637    0.41288    0.08569   1.00
H2       1.00831    0.33119    0.09555   1.00
C5       1.11042    0.34685    0.08919   1.00
H2       1.08645    0.30858    0.07683   1.00
H2       1.12247    0.32307    0.10213   1.00
O_3      1.02526    0.41573    0.19914   1.00
C4       1.02608    0.50029    0.16772   1.00
C3c      1.01914    0.46464    0.14963   1.00
H1       0.97280    0.41697    0.14678   1.00
C3d      1.08647    0.56281    0.17100   1.00
C3       1.07182    0.48915    0.13511   1.00
O2       1.05815    0.45594    0.11675   1.00
C3       1.13953    0.58669    0.15675   1.00
H1       1.18583    0.63365    0.16026   1.00
C2       1.13365    0.55091    0.13848   1.00
C5       1.07231    0.45261    0.21468   1.00
H2       1.04764    0.44213    0.22991   1.00
H2       1.09786    0.50864    0.21185   1.00
C5       1.12575    0.43076    0.21491   1.00
H2       1.14906    0.43944    0.19954   1.00
H2       1.09976    0.37488    0.21794   1.00
C5       1.18053    0.47036    0.23098   1.00
H2       1.15754    0.46230    0.24636   1.00
H2       1.20812    0.52594    0.22757   1.00
H2       1.21830    0.45263    0.23123   1.00
C5       1.07070    0.64124    0.18820   1.00
C5       1.07814    0.40596    0.11731   1.00
H2       1.01456    0.61218    0.18585   1.00
H2       1.09444    0.67930    0.17573   1.00
H2       1.04854    0.36706    0.12917   1.00
H2       1.13350    0.42806    0.12094   1.00
H2       1.15893    0.38926    0.08283   1.00
H2       0.98773    0.67566    0.21332   1.00
H2       1.04878    0.74693    0.19800   1.00
C2       0.87094    0.42465    0.21344   1.00
C3       0.86831    0.46398    0.19722   1.00
O2       0.82712    0.49265    0.19841   1.00
C3       0.92370    0.40839    0.21356   1.00
H1       0.92610    0.37690    0.22548   1.00
C3a      0.91877    0.48742    0.18196   1.00
H1       0.91829    0.52070    0.17029   1.00
C3b      0.97503    0.43359    0.19872   1.00
C4       0.97295    0.47356    0.18278   1.00
O_3      1.09794    0.59726    0.18921   1.00
C5       0.76724    0.45418    0.18692   1.00
H2       0.77936    0.45190    0.17062   1.00
C5       0.72508    0.48975    0.18873   1.00
H2       0.73712    0.40113    0.19286   1.00
H2       0.74653    0.53392    0.17812   1.00
H2       0.73277    0.51123    0.20434   1.00
C5       0.64861    0.44167    0.18446   1.00
H2       0.64224    0.41658    0.16950   1.00
H2       0.62068    0.47052    0.18424   1.00
H2       0.62432    0.40193    0.19653   1.00
C5       1.08560    0.67885    0.20836   1.00
H2       1.14113    0.71672    0.20908   1.00
H2       1.07462    0.64139    0.22078   1.00
C5       1.04286    0.71389    0.21122   1.00
H2       1.06008    0.74651    0.22500   1.00
C5       0.61323    0.65954    0.09107   1.00
H2       0.56811    0.62346    0.08203   1.00
H2       0.65023    0.64106    0.08984   1.00
C5       0.64392    0.73209    0.08204   1.00
H2       0.67696    0.73841    0.06876   1.00
H2       0.67478    0.77086    0.09372   1.00
O_3      0.59908    0.61311    0.19569   1.00
C4       0.49964    0.52581    0.16774   1.00
C3c      0.53001    0.54584    0.14852   1.00
H1       0.57349    0.54030    0.14479   1.00
C3d      0.44243    0.53254    0.17219   1.00
C3       0.50567    0.57406    0.13398   1.00
O2       0.53257    0.58467    0.11472   1.00
C3       0.41888    0.56183    0.15789   1.00
H1       0.37638    0.56821    0.16225   1.00
C2       0.44946    0.58305    0.13846   1.00
C5       0.57138    0.63338    0.21161   1.00
H2       0.58462    0.62188    0.22683   1.00
H2       0.51468    0.60751    0.21045   1.00
C5       0.60083    0.70996    0.20990   1.00
H2       0.58926    0.72165    0.19448   1.00
H2       0.65738    0.73528    0.21127   1.00
C5       0.57139    0.73601    0.22628   1.00
H2       0.58235    0.72409    0.24171   1.00
H2       0.51521    0.71253    0.22449   1.00
H2       0.59464    0.79228    0.22507   1.00
C5       0.36411    0.44871    0.19266   1.00
C5       0.58764    0.65218    0.11294   1.00
H2       0.38703    0.41575    0.19034   1.00
H2       0.32274    0.43454    0.18125   1.00
H2       0.62896    0.66075    0.12381   1.00
H2       0.57236    0.69115    0.11626   1.00
H2       0.60308    0.74190    0.07637   1.00
H2       0.32659    0.33733    0.22064   1.00
H2       0.25389    0.33081    0.20694   1.00
C2       0.57601    0.44683    0.21340   1.00
C3       0.52884    0.40255    0.19887   1.00
O2       0.49419    0.33299    0.20201   1.00
C3       0.59948    0.51748    0.21181   1.00
H1       0.63691    0.55291    0.22238   1.00
C3a      0.50510    0.42919    0.18359   1.00
H1       0.46610    0.39420    0.17329   1.00
C3b      0.57413    0.54354    0.19700   1.00
C4       0.52646    0.49934    0.18276   1.00
O_3      0.41390    0.51843    0.19139   1.00
C5       0.52340    0.30196    0.19032   1.00
H2       0.52166    0.31172    0.17379   1.00
C5       0.48161    0.22520    0.19436   1.00
H2       0.57749    0.32123    0.19478   1.00
H2       0.43420    0.20356    0.18510   1.00
H2       0.46534    0.21829    0.21055   1.00
C5       0.52138    0.18784    0.18981   1.00
H2       0.54181    0.19968    0.17410   1.00
H2       0.48766    0.13166    0.19129   1.00
H2       0.56430    0.20285    0.20076   1.00
C5       0.33335    0.43589    0.21384   1.00
H2       0.30054    0.45951    0.21489   1.00
H2       0.37560    0.46291    0.22495   1.00
C5       0.29239    0.35932    0.21892   1.00
H2       0.26496    0.35157    0.23353   1.00
C5       0.34761    0.63863    0.65764   1.00
H2       0.34378    0.59741    0.66764   1.00
H2       0.34909    0.62201    0.64189   1.00
C5       0.28421    0.64663    0.66070   1.00
H2       0.24010    0.60763    0.65180   1.00
H2       0.29570    0.69834    0.65579   1.00
O_3      0.66815    0.92493    0.64419   1.00
C4       0.64069    0.80640    0.66565   1.00
C3c      0.57347    0.75719    0.66063   1.00
H1       0.56104    0.73930    0.64517   1.00
C3d      0.65602    0.82831    0.68595   1.00
C3       0.52123    0.73107    0.67530   1.00
O2       0.45875    0.67721    0.66983   1.00
C3       0.60387    0.80337    0.70051   1.00
H1       0.61758    0.82346    0.71572   1.00
C2       0.53546    0.75414    0.69565   1.00
C5       0.70652    0.98498    0.65565   1.00
H2       0.75384    1.02276    0.64764   1.00
H2       0.72140    0.97340    0.67063   1.00
C5       0.66210    1.01680    0.65913   1.00
H2       0.61396    0.97837    0.66663   1.00
H2       0.64809    1.02872    0.64409   1.00
C5       0.69920    1.08136    0.67215   1.00
H2       0.74756    1.11977    0.66482   1.00
H2       0.71111    1.06912    0.68742   1.00
H2       0.66653    1.10472    0.67415   1.00
C5       0.76216    0.85263    0.69608   1.00
C5       0.41581    0.70175    0.66298   1.00
H2       0.76892    0.82662    0.68272   1.00
H2       0.74081    0.81543    0.70886   1.00
H2       0.43831    0.73448    0.64929   1.00
H2       0.40824    0.73313    0.67468   1.00
H2       0.26765    0.63873    0.67693   1.00
H2       0.89857    0.88115    0.68673   1.00
H2       0.87028    0.84402    0.71177   1.00
C2       0.80008    0.89338    0.62131   1.00
C3       0.78482    0.83191    0.63111   1.00
O2       0.83048    0.80843    0.63050   1.00
C3       0.75947    0.92306    0.62578   1.00
H1       0.76871    0.96914    0.61815   1.00
C3a      0.73119    0.80275    0.64537   1.00
H1       0.72266    0.75784    0.65359   1.00
C3b      0.70761    0.89512    0.64044   1.00
C4       0.69317    0.83459    0.65040   1.00
O_3      0.72018    0.88034    0.69137   1.00
C5       0.80909    0.75516    0.61623   1.00
H2       0.75769    0.71153    0.62014   1.00
C5       0.86148    0.73127    0.61671   1.00
H2       0.80697    0.77330    0.60067   1.00
H2       0.85040    0.69709    0.63004   1.00
H2       0.91239    0.77700    0.61949   1.00
C5       0.86229    0.69485    0.59703   1.00
H2       0.80994    0.65268    0.59365   1.00
H2       0.89673    0.67326    0.59860   1.00
H2       0.88177    0.73098    0.58392   1.00
C5       0.83156    0.91140    0.70230   1.00
H2       0.82666    0.92974    0.71754   1.00
H2       0.84586    0.95430    0.69149   1.00
C5       0.88672    0.89060    0.70243   1.00
H2       0.93470    0.93226    0.70903   1.00
C5       0.42888    0.60508    0.67385   1.00
H2       0.40761    0.63988    0.67415   1.00
H2       0.44484    0.60508    0.65791   1.00
C5       0.49112    0.63261    0.68823   1.00
H2       0.53770    0.67351    0.68070   1.00
H2       0.50035    0.59056    0.69276   1.00
O_3      0.20014    0.25638    0.66769   1.00
C4       0.16587    0.35979    0.66550   1.00
C3c      0.22772    0.42095    0.66278   1.00
H1       0.25705    0.42870    0.64910   1.00
C3d      0.12796    0.35111    0.68330   1.00
C3       0.25317    0.47245    0.67768   1.00
O2       0.30957    0.53403    0.67290   1.00
C3       0.15379    0.40174    0.69834   1.00
H1       0.12410    0.39178    0.71205   1.00
C2       0.21661    0.46359    0.69593   1.00
C5       0.16153    0.20630    0.68235   1.00
H2       0.13496    0.15389    0.67581   1.00
H2       0.12239    0.21606    0.68939   1.00
C5       0.21039    0.20953    0.69868   1.00
H2       0.23834    0.26243    0.70482   1.00
H2       0.24883    0.19908    0.69152   1.00
C5       0.17211    0.15814    0.71568   1.00
H2       0.14370    0.10526    0.70963   1.00
H2       0.13539    0.16997    0.72330   1.00
H2       0.20882    0.16019    0.72724   1.00
C5       0.01272    0.29037    0.67873   1.00
C5       0.36938    0.53467    0.67942   1.00
H2       0.01744    0.29539    0.66194   1.00
H2       0.00646    0.33284    0.68488   1.00
H2       0.37452    0.49395    0.67148   1.00
H2       0.36925    0.52553    0.69610   1.00
H2       0.48314    0.65605    0.70213   1.00
H2       -0.10490   0.19988    0.65471   1.00
H2       -0.12121   0.25346    0.67165   1.00
C2       0.08962    0.19821    0.62182   1.00
C3       0.07475    0.25150    0.61981   1.00
O2       0.02289    0.24411    0.60718   1.00
C3       0.13266    0.20160    0.63788   1.00
H1       0.14644    0.16254    0.63953   1.00
C3a      0.10135    0.30537    0.63401   1.00
H1       0.08634    0.34370    0.63294   1.00
C3b      0.15724    0.25409    0.65235   1.00
C4       0.14156    0.30646    0.65052   1.00
O_3      0.06943    0.28986    0.68740   1.00
C5       0.05004    0.27980    0.58888   1.00
H2       0.08489    0.33535    0.59170   1.00
C5       -0.01029   0.27010    0.57593   1.00
H2       0.07881    0.25924    0.58060   1.00
H2       -0.02692   0.30599    0.58143   1.00
H2       -0.05341   0.21767    0.57887   1.00
C5       0.00645    0.28071    0.55309   1.00
H2       0.05284    0.33115    0.55061   1.00
H2       -0.03656   0.27893    0.54439   1.00
H2       0.01479    0.23963    0.54677   1.00
C5       -0.05041   0.22275    0.68393   1.00
H2       -0.06171   0.22296    0.70036   1.00
H2       -0.03820   0.18128    0.68162   1.00
C5       -0.11221   0.20949    0.67087   1.00
H2       -0.15879   0.16354    0.67648   1.00
C5       0.18711    0.57571    0.67180   1.00
H2       0.24338    0.59900    0.67266   1.00
H2       0.17347    0.56143    0.65565   1.00
C5       0.15284    0.51159    0.68546   1.00
H2       0.15012    0.46684    0.67756   1.00
H2       0.10031    0.49965    0.68955   1.00
O_3      0.05454    0.79413    0.66645   1.00
C4       0.19390    0.83415    0.66551   1.00
C3c      0.19642    0.77413    0.66234   1.00
H1       0.17739    0.74626    0.64830   1.00
C3d      0.21986    0.87024    0.68379   1.00
C3       0.22245    0.74862    0.67722   1.00
O2       0.23096    0.69444    0.67208   1.00
C3       0.24461    0.84428    0.69880   1.00
H1       0.26174    0.87241    0.71285   1.00
C2       0.24685    0.78325    0.69593   1.00
C5       0.03927    0.82942    0.68130   1.00
H2       0.01239    0.85497    0.67477   1.00
H2       0.08655    0.86895    0.68897   1.00
C5       -0.00705   0.77759    0.69693   1.00
H2       0.01901    0.75069    0.70304   1.00
H2       -0.05435   0.73875    0.68914   1.00
C5       -0.02428   0.81218    0.71409   1.00
H2       -0.04989   0.83954    0.70808   1.00
H2       0.02270    0.84927    0.72233   1.00
H2       -0.05937   0.77332    0.72513   1.00
C5       0.27072    0.98573    0.68045   1.00
C5       0.17251    0.63256    0.67772   1.00
H2       0.27326    0.98326    0.66365   1.00
H2       0.31948    0.99330    0.68699   1.00
H2       0.12683    0.62643    0.66942   1.00
H2       0.16129    0.63016    0.69432   1.00
H2       0.18290    0.51906    0.69963   1.00
H2       0.29581    1.10476    0.65751   1.00
H2       0.36444    1.12174    0.67506   1.00
C2       0.10838    0.91014    0.62181   1.00
C3       0.17757    0.92803    0.62040   1.00
O2       0.22212    0.98226    0.60849   1.00
C3       0.06795    0.86431    0.63726   1.00
H1       0.01440    0.84822    0.63842   1.00
C3a      0.20498    0.90154    0.63459   1.00
H1       0.25892    0.91877    0.63402   1.00
C3b      0.09588    0.83978    0.65173   1.00
C4       0.16491    0.85843    0.65051   1.00
O_3      0.21386    0.92670    0.68829   1.00
C5       0.23431    0.95848    0.59006   1.00
H2       0.25675    0.92507    0.59277   1.00
C5       0.28478    1.02129    0.57793   1.00
H2       0.18624    0.92919    0.58122   1.00
H2       0.33700    1.03922    0.58393   1.00
H2       0.27289    1.06255    0.58112   1.00
C5       0.28204    1.00756    0.55495   1.00
H2       0.28864    0.96280    0.55216   1.00
H2       0.32320    1.05250    0.54687   1.00
H2       0.23268    0.99795    0.54821   1.00
C5       0.26254    1.04646    0.68608   1.00
H2       0.27181    1.05594    0.70266   1.00
H2       0.20853    1.03237    0.68329   1.00
C5       0.31083    1.11063    0.67383   1.00
H2       0.30862    1.15539    0.67978   1.00
