data_IRMOF10_interpen_symm_ligand4cp_label_h_2.

_audit_creation_method             'generated by an auxiliary program of Tobunporous'

_symmetry_space_group_name_H-M     'P 1'
_symmetry_Int_Tables_number        1
_symmetry_cell_setting             triclinic

_cell_length_a                    22.6523
_cell_length_b                    22.6523
_cell_length_c                    65.9502
_cell_angle_alpha                 90.0000
_cell_angle_beta                  90.0000
_cell_angle_gamma                 120.0000

loop_
_atom_site_label
_atom_site_fract_x
_atom_site_fract_y
_atom_site_fract_z
_atom_site_occupancy
O1       0.00000    0.00000    0.57470   1.00
Zn1      0.00000    0.00000    0.54560   1.00
Zn1      0.94843    0.04287    0.58357   1.00
Zn1      0.09443    0.05157    0.58357   1.00
Zn1      0.95713    0.90557    0.58357   1.00
O2       0.93860    0.02610    0.53560   1.00
O2       0.08750    0.06140    0.53560   1.00
O2       0.97390    0.91250    0.53560   1.00
O2       0.91300    0.07160    0.56150   1.00
O2       0.00463    0.12027    0.60077   1.00
O2       0.87413    0.98077    0.60037   1.00
O2       0.15860    0.08700    0.56150   1.00
O2       0.10663    0.12587    0.60037   1.00
O2       0.11563    0.99537    0.60077   1.00
O2       0.92840    0.84140    0.56150   1.00
O2       0.87973    0.88437    0.60077   1.00
O2       0.01923    0.89337    0.60037   1.00
C1       0.91390    0.06020    0.54330   1.00
C1       0.14630    0.08610    0.54330   1.00
C1       0.93980    0.85370    0.54330   1.00
C1       0.06663    0.14397    0.60637   1.00
C1       0.85603    0.92267    0.60637   1.00
C1       0.07733    0.93337    0.60637   1.00
O1       0.00000    0.00000    0.92530   1.00
Zn1      0.00000    0.00000    0.95440   1.00
Zn1      0.04287    0.94843    0.91643   1.00
Zn1      0.05157    0.09443    0.91643   1.00
Zn1      0.90557    0.95713    0.91643   1.00
O2       0.02610    0.93860    0.96440   1.00
O2       0.06140    0.08750    0.96440   1.00
O2       0.91250    0.97390    0.96440   1.00
O2       0.07160    0.91300    0.93850   1.00
O2       0.12027    0.00463    0.89923   1.00
O2       0.98077    0.87413    0.89963   1.00
O2       0.08700    0.15860    0.93850   1.00
O2       0.12587    0.10663    0.89963   1.00
O2       0.99537    0.11563    0.89923   1.00
O2       0.84140    0.92840    0.93850   1.00
O2       0.88437    0.87973    0.89923   1.00
O2       0.89337    0.01923    0.89963   1.00
C1       0.06020    0.91390    0.95670   1.00
C1       0.08610    0.14630    0.95670   1.00
C1       0.85370    0.93980    0.95670   1.00
C1       0.14397    0.06663    0.89363   1.00
C1       0.92267    0.85603    0.89363   1.00
C1       0.93337    0.07733    0.89363   1.00
O1       0.00000    0.00000    0.42530   1.00
Zn1      0.00000    0.00000    0.45440   1.00
Zn1      0.05157    0.95713    0.41643   1.00
Zn1      0.90557    0.94843    0.41643   1.00
Zn1      0.04287    0.09443    0.41643   1.00
O2       0.06140    0.97390    0.46440   1.00
O2       0.91250    0.93860    0.46440   1.00
O2       0.02610    0.08750    0.46440   1.00
O2       0.08700    0.92840    0.43850   1.00
O2       0.99537    0.87973    0.39923   1.00
O2       0.12587    0.01923    0.39963   1.00
O2       0.84140    0.91300    0.43850   1.00
O2       0.89337    0.87413    0.39963   1.00
O2       0.88437    0.00463    0.39923   1.00
O2       0.07160    0.15860    0.43850   1.00
O2       0.12027    0.11563    0.39923   1.00
O2       0.98077    0.10663    0.39963   1.00
C1       0.08610    0.93980    0.45670   1.00
C1       0.85370    0.91390    0.45670   1.00
C1       0.06020    0.14630    0.45670   1.00
C1       0.93337    0.85603    0.39363   1.00
C1       0.14397    0.07733    0.39363   1.00
C1       0.92267    0.06663    0.39363   1.00
O1       0.00000    0.00000    0.07470   1.00
Zn1      0.00000    0.00000    0.04560   1.00
Zn1      0.95713    0.05157    0.08357   1.00
Zn1      0.94843    0.90557    0.08357   1.00
Zn1      0.09443    0.04287    0.08357   1.00
O2       0.97390    0.06140    0.03560   1.00
O2       0.93860    0.91250    0.03560   1.00
O2       0.08750    0.02610    0.03560   1.00
O2       0.92840    0.08700    0.06150   1.00
O2       0.87973    0.99537    0.10077   1.00
O2       0.01923    0.12587    0.10037   1.00
O2       0.91300    0.84140    0.06150   1.00
O2       0.87413    0.89337    0.10037   1.00
O2       0.00463    0.88437    0.10077   1.00
O2       0.15860    0.07160    0.06150   1.00
O2       0.11563    0.12027    0.10077   1.00
O2       0.10663    0.98077    0.10037   1.00
C1       0.93980    0.08610    0.04330   1.00
C1       0.91390    0.85370    0.04330   1.00
C1       0.14630    0.06020    0.04330   1.00
C1       0.85603    0.93337    0.10637   1.00
C1       0.07733    0.14397    0.10637   1.00
C1       0.06663    0.92267    0.10637   1.00
O1       0.66667    0.33333    0.90803   1.00
Zn1      0.66667    0.33333    0.87893   1.00
Zn1      0.61510    0.37620    0.91690   1.00
Zn1      0.76110    0.38490    0.91690   1.00
Zn1      0.62380    0.23890    0.91690   1.00
O2       0.60527    0.35943    0.86893   1.00
O2       0.75417    0.39473    0.86893   1.00
O2       0.64057    0.24583    0.86893   1.00
O2       0.57967    0.40493    0.89483   1.00
O2       0.67130    0.45360    0.93410   1.00
O2       0.54080    0.31410    0.93370   1.00
O2       0.82527    0.42033    0.89483   1.00
O2       0.77330    0.45920    0.93370   1.00
O2       0.78230    0.32870    0.93410   1.00
O2       0.59507    0.17473    0.89483   1.00
O2       0.54640    0.21770    0.93410   1.00
O2       0.68590    0.22670    0.93370   1.00
C1       0.58057    0.39353    0.87663   1.00
C1       0.81297    0.41943    0.87663   1.00
C1       0.60647    0.18703    0.87663   1.00
C1       0.73330    0.47730    0.93970   1.00
C1       0.52270    0.25600    0.93970   1.00
C1       0.74400    0.26670    0.93970   1.00
O1       0.66667    0.33333    0.25863   1.00
Zn1      0.66667    0.33333    0.28773   1.00
Zn1      0.70953    0.28177    0.24977   1.00
Zn1      0.71823    0.42777    0.24977   1.00
Zn1      0.57223    0.29047    0.24977   1.00
O2       0.69277    0.27193    0.29773   1.00
O2       0.72807    0.42083    0.29773   1.00
O2       0.57917    0.30723    0.29773   1.00
O2       0.73827    0.24633    0.27183   1.00
O2       0.78693    0.33797    0.23257   1.00
O2       0.64743    0.20747    0.23297   1.00
O2       0.75367    0.49193    0.27183   1.00
O2       0.79253    0.43997    0.23297   1.00
O2       0.66203    0.44897    0.23257   1.00
O2       0.50807    0.26173    0.27183   1.00
O2       0.55103    0.21307    0.23257   1.00
O2       0.56003    0.35257    0.23297   1.00
C1       0.72687    0.24723    0.29003   1.00
C1       0.75277    0.47963    0.29003   1.00
C1       0.52037    0.27313    0.29003   1.00
C1       0.81063    0.39997    0.22697   1.00
C1       0.58933    0.18937    0.22697   1.00
C1       0.60003    0.41067    0.22697   1.00
O1       0.66667    0.33333    0.75863   1.00
Zn1      0.66667    0.33333    0.78773   1.00
Zn1      0.71823    0.29047    0.74977   1.00
Zn1      0.57223    0.28177    0.74977   1.00
Zn1      0.70953    0.42777    0.74977   1.00
O2       0.72807    0.30723    0.79773   1.00
O2       0.57917    0.27193    0.79773   1.00
O2       0.69277    0.42083    0.79773   1.00
O2       0.75367    0.26173    0.77183   1.00
O2       0.66203    0.21307    0.73257   1.00
O2       0.79253    0.35257    0.73297   1.00
O2       0.50807    0.24633    0.77183   1.00
O2       0.56003    0.20747    0.73297   1.00
O2       0.55103    0.33797    0.73257   1.00
O2       0.73827    0.49193    0.77183   1.00
O2       0.78693    0.44897    0.73257   1.00
O2       0.64743    0.43997    0.73297   1.00
C1       0.75277    0.27313    0.79003   1.00
C1       0.52037    0.24723    0.79003   1.00
C1       0.72687    0.47963    0.79003   1.00
C1       0.60003    0.18937    0.72697   1.00
C1       0.81063    0.41067    0.72697   1.00
C1       0.58933    0.39997    0.72697   1.00
O1       0.66667    0.33333    0.40803   1.00
Zn1      0.66667    0.33333    0.37893   1.00
Zn1      0.62380    0.38490    0.41690   1.00
Zn1      0.61510    0.23890    0.41690   1.00
Zn1      0.76110    0.37620    0.41690   1.00
O2       0.64057    0.39473    0.36893   1.00
O2       0.60527    0.24583    0.36893   1.00
O2       0.75417    0.35943    0.36893   1.00
O2       0.59507    0.42033    0.39483   1.00
O2       0.54640    0.32870    0.43410   1.00
O2       0.68590    0.45920    0.43370   1.00
O2       0.57967    0.17473    0.39483   1.00
O2       0.54080    0.22670    0.43370   1.00
O2       0.67130    0.21770    0.43410   1.00
O2       0.82527    0.40493    0.39483   1.00
O2       0.78230    0.45360    0.43410   1.00
O2       0.77330    0.31410    0.43370   1.00
C1       0.60647    0.41943    0.37663   1.00
C1       0.58057    0.18703    0.37663   1.00
C1       0.81297    0.39353    0.37663   1.00
C1       0.52270    0.26670    0.43970   1.00
C1       0.74400    0.47730    0.43970   1.00
C1       0.73330    0.25600    0.43970   1.00
O1       0.33333    0.66667    0.24137   1.00
Zn1      0.33333    0.66667    0.21227   1.00
Zn1      0.28177    0.70953    0.25023   1.00
Zn1      0.42777    0.71823    0.25023   1.00
Zn1      0.29047    0.57223    0.25023   1.00
O2       0.27193    0.69277    0.20227   1.00
O2       0.42083    0.72807    0.20227   1.00
O2       0.30723    0.57917    0.20227   1.00
O2       0.24633    0.73827    0.22817   1.00
O2       0.33797    0.78693    0.26743   1.00
O2       0.20747    0.64743    0.26703   1.00
O2       0.49193    0.75367    0.22817   1.00
O2       0.43997    0.79253    0.26703   1.00
O2       0.44897    0.66203    0.26743   1.00
O2       0.26173    0.50807    0.22817   1.00
O2       0.21307    0.55103    0.26743   1.00
O2       0.35257    0.56003    0.26703   1.00
C1       0.24723    0.72687    0.20997   1.00
C1       0.47963    0.75277    0.20997   1.00
C1       0.27313    0.52037    0.20997   1.00
C1       0.39997    0.81063    0.27303   1.00
C1       0.18937    0.58933    0.27303   1.00
C1       0.41067    0.60003    0.27303   1.00
O1       0.33333    0.66667    0.59197   1.00
Zn1      0.33333    0.66667    0.62107   1.00
Zn1      0.37620    0.61510    0.58310   1.00
Zn1      0.38490    0.76110    0.58310   1.00
Zn1      0.23890    0.62380    0.58310   1.00
O2       0.35943    0.60527    0.63107   1.00
O2       0.39473    0.75417    0.63107   1.00
O2       0.24583    0.64057    0.63107   1.00
O2       0.40493    0.57967    0.60517   1.00
O2       0.45360    0.67130    0.56590   1.00
O2       0.31410    0.54080    0.56630   1.00
O2       0.42033    0.82527    0.60517   1.00
O2       0.45920    0.77330    0.56630   1.00
O2       0.32870    0.78230    0.56590   1.00
O2       0.17473    0.59507    0.60517   1.00
O2       0.21770    0.54640    0.56590   1.00
O2       0.22670    0.68590    0.56630   1.00
C1       0.39353    0.58057    0.62337   1.00
C1       0.41943    0.81297    0.62337   1.00
C1       0.18703    0.60647    0.62337   1.00
C1       0.47730    0.73330    0.56030   1.00
C1       0.25600    0.52270    0.56030   1.00
C1       0.26670    0.74400    0.56030   1.00
O1       0.33333    0.66667    0.09197   1.00
Zn1      0.33333    0.66667    0.12107   1.00
Zn1      0.38490    0.62380    0.08310   1.00
Zn1      0.23890    0.61510    0.08310   1.00
Zn1      0.37620    0.76110    0.08310   1.00
O2       0.39473    0.64057    0.13107   1.00
O2       0.24583    0.60527    0.13107   1.00
O2       0.35943    0.75417    0.13107   1.00
O2       0.42033    0.59507    0.10517   1.00
O2       0.32870    0.54640    0.06590   1.00
O2       0.45920    0.68590    0.06630   1.00
O2       0.17473    0.57967    0.10517   1.00
O2       0.22670    0.54080    0.06630   1.00
O2       0.21770    0.67130    0.06590   1.00
O2       0.40493    0.82527    0.10517   1.00
O2       0.45360    0.78230    0.06590   1.00
O2       0.31410    0.77330    0.06630   1.00
C1       0.41943    0.60647    0.12337   1.00
C1       0.18703    0.58057    0.12337   1.00
C1       0.39353    0.81297    0.12337   1.00
C1       0.26670    0.52270    0.06030   1.00
C1       0.47730    0.74400    0.06030   1.00
C1       0.25600    0.73330    0.06030   1.00
O1       0.33333    0.66667    0.74137   1.00
Zn1      0.33333    0.66667    0.71227   1.00
Zn1      0.29047    0.71823    0.75023   1.00
Zn1      0.28177    0.57223    0.75023   1.00
Zn1      0.42777    0.70953    0.75023   1.00
O2       0.30723    0.72807    0.70227   1.00
O2       0.27193    0.57917    0.70227   1.00
O2       0.42083    0.69277    0.70227   1.00
O2       0.26173    0.75367    0.72817   1.00
O2       0.21307    0.66203    0.76743   1.00
O2       0.35257    0.79253    0.76703   1.00
O2       0.24633    0.50807    0.72817   1.00
O2       0.20747    0.56003    0.76703   1.00
O2       0.33797    0.55103    0.76743   1.00
O2       0.49193    0.73827    0.72817   1.00
O2       0.44897    0.78693    0.76743   1.00
O2       0.43997    0.64743    0.76703   1.00
C1       0.27313    0.75277    0.70997   1.00
C1       0.24723    0.52037    0.70997   1.00
C1       0.47963    0.72687    0.70997   1.00
C1       0.18937    0.60003    0.77303   1.00
C1       0.41067    0.81063    0.77303   1.00
C1       0.39997    0.58933    0.77303   1.00
C4       0.83488    0.63657    0.48576   1.00
C4       0.86078    0.68761    0.50122   1.00
C3       0.87772    0.63182    0.47079   1.00
C3       0.93193    0.73281    0.50411   1.00
C3       0.76354    0.58805    0.48498   1.00
C3       0.81451    0.69437    0.51447   1.00
C2       0.78308    0.53132    0.45507   1.00
C2       0.91310    0.79303    0.53185   1.00
C3       0.85279    0.58066    0.45596   1.00
C3       0.95740    0.78417    0.51887   1.00
C3       0.74025    0.53651    0.46970   1.00
C3       0.84251    0.74758    0.52924   1.00
H1       0.92854    0.66578    0.46997   1.00
H1       0.96794    0.72968    0.49572   1.00
C5       0.71747    0.59198    0.49911   1.00
C5       0.74246    0.64851    0.51286   1.00
H1       0.88637    0.57986    0.44565   1.00
H1       1.00925    0.81530    0.52013   1.00
H1       0.68995    0.50083    0.46875   1.00
H1       0.81123    0.75429    0.53885   1.00
C6       0.64339    0.53613    0.49949   1.00
C6       0.69379    0.66077    0.52550   1.00
H2       0.64065    0.48681    0.49837   1.00
H2       0.71014    0.71492    0.52517   1.00
H2       0.62024    0.53237    0.51422   1.00
H2       0.64366    0.63851    0.51854   1.00
C6       0.59915    0.54486    0.48275   1.00
C6       0.68582    0.63350    0.54777   1.00
H2       0.62682    0.55854    0.46836   1.00
H2       0.73598    0.64745    0.55391   1.00
C6       0.52611    0.48300    0.47873   1.00
C6       0.64922    0.65644    0.56342   1.00
H2       0.59417    0.58890    0.48688   1.00
H2       0.65805    0.57784    0.54712   1.00
C6       0.52902    0.42129    0.46967   1.00
C6       0.69130    0.73413    0.56771   1.00
C6       0.48247    0.46032    0.49832   1.00
C6       0.57694    0.63796    0.55612   1.00
C6       0.48971    0.50509    0.46305   1.00
C6       0.64165    0.61874    0.58376   1.00
H2       0.56042    0.43590    0.45599   1.00
H2       0.74301    0.74902    0.57258   1.00
H2       0.55028    0.40042    0.48043   1.00
H2       0.69506    0.76387    0.55430   1.00
H2       0.47819    0.38022    0.46561   1.00
H2       0.66777    0.74879    0.57965   1.00
H2       0.43023    0.42048    0.49508   1.00
H2       0.55005    0.64971    0.56775   1.00
H2       0.50333    0.43987    0.50938   1.00
H2       0.57959    0.66676    0.54257   1.00
H2       0.48077    0.50320    0.50524   1.00
H2       0.54670    0.58374    0.55258   1.00
H2       0.51815    0.52096    0.44882   1.00
H2       0.69142    0.63064    0.58970   1.00
H2       0.43853    0.46335    0.45963   1.00
H2       0.61671    0.63345    0.59525   1.00
H2       0.48485    0.54770    0.46875   1.00
H2       0.61118    0.56358    0.58180   1.00
C4       0.35442    0.18461    0.48301   1.00
C4       0.29978    0.15881    0.49734   1.00
C3       0.40776    0.16866    0.48402   1.00
C3       0.29075    0.10972    0.51236   1.00
C3       0.35667    0.22818    0.46696   1.00
C3       0.25180    0.18234    0.49684   1.00
C2       0.46312    0.23404    0.45346   1.00
C2       0.19128    0.10908    0.52696   1.00
C3       0.46031    0.19227    0.46966   1.00
C3       0.23841    0.08579    0.52679   1.00
C3       0.41086    0.25085    0.45258   1.00
C3       0.19945    0.15699    0.51188   1.00
H1       0.41080    0.13983    0.49535   1.00
H1       0.32146    0.08899    0.51324   1.00
C5       0.30599    0.24834    0.46564   1.00
C5       0.25657    0.22958    0.48154   1.00
H1       0.49712    0.17872    0.47120   1.00
H1       0.23482    0.05060    0.53728   1.00
H1       0.41394    0.28152    0.44088   1.00
H1       0.16465    0.17288    0.51211   1.00
C6       0.30484    0.28842    0.44741   1.00
C6       0.21000    0.25955    0.48251   1.00
H2       0.31270    0.26630    0.43372   1.00
H2       0.20742    0.27391    0.49812   1.00
H2       0.25429    0.28128    0.44479   1.00
H2       0.23206    0.30850    0.47482   1.00
C6       0.35730    0.36668    0.44900   1.00
C6       0.13724    0.21108    0.47357   1.00
H2       0.40613    0.37424    0.45452   1.00
H2       0.11867    0.15911    0.47900   1.00
C6       0.37148    0.41064    0.42936   1.00
C6       0.08044    0.22969    0.47779   1.00
H2       0.33931    0.38777    0.46080   1.00
H2       0.14249    0.20868    0.45717   1.00
C6       0.40745    0.39110    0.41283   1.00
C6       0.06195    0.22355    0.50065   1.00
C6       0.30501    0.40390    0.42050   1.00
C6       0.10184    0.30257    0.47035   1.00
C6       0.41977    0.48670    0.43488   1.00
C6       0.01505    0.17872    0.46608   1.00
H2       0.45404    0.39427    0.41872   1.00
H2       0.04768    0.17296    0.50645   1.00
H2       0.37459    0.33939    0.40732   1.00
H2       0.10455    0.26098    0.50968   1.00
H2       0.42136    0.42511    0.39977   1.00
H2       0.01914    0.23198    0.50324   1.00
H2       0.31599    0.43841    0.40769   1.00
H2       0.06010    0.31322    0.47203   1.00
H2       0.27108    0.35224    0.41507   1.00
H2       0.14491    0.34082    0.47908   1.00
H2       0.27794    0.41600    0.43196   1.00
H2       0.11649    0.30870    0.45439   1.00
H2       0.46790    0.49441    0.44103   1.00
H2       -0.00268   0.12638    0.47094   1.00
H2       0.43158    0.51949    0.42159   1.00
H2       -0.02635   0.18936    0.46866   1.00
H2       0.39661    0.50396    0.44622   1.00
H2       0.02447    0.18162    0.44978   1.00
C4       0.81446    0.16813    0.48276   1.00
C4       0.83969    0.13886    0.49713   1.00
C3       0.84103    0.23981    0.48125   1.00
C3       0.89781    0.17934    0.50949   1.00
C3       0.76053    0.12482    0.46928   1.00
C3       0.80622    0.06641    0.49940   1.00
C2       0.76576    0.22759    0.45305   1.00
C2       0.88877    0.07990    0.52689   1.00
C3       0.81775    0.26878    0.46680   1.00
C3       0.92149    0.15091    0.52400   1.00
C3       0.73853    0.15637    0.45471   1.00
C3       0.83172    0.03950    0.51443   1.00
H1       0.87783    0.27363    0.49074   1.00
H1       0.92553    0.23098    0.50828   1.00
C5       0.72979    0.05211    0.47065   1.00
C5       0.74921    0.02288    0.48679   1.00
H1       0.83921    0.32087    0.46644   1.00
H1       0.96351    0.18290    0.53250   1.00
H1       0.70063    0.12730    0.44477   1.00
H1       0.80901    -0.01173   0.51659   1.00
C6       0.67791    0.00729    0.45492   1.00
C6       0.70987    -0.05312   0.49083   1.00
H2       0.69597    0.02926    0.43993   1.00
H2       0.70193    -0.06170   0.50711   1.00
H2       0.67557    -0.04165   0.45347   1.00
H2       0.65777    -0.07630   0.48530   1.00
C6       0.60445    -0.00523   0.45924   1.00
C6       0.74454    -0.09198   0.48153   1.00
H2       0.60749    0.04277    0.46363   1.00
H2       0.79933    -0.06339   0.48456   1.00
C6       0.55036    -0.03771   0.44188   1.00
C6       0.71716    -0.16741   0.48846   1.00
H2       0.58482    -0.03796   0.47261   1.00
H2       0.73983    -0.09149   0.46505   1.00
C6       0.56906    0.01081    0.42339   1.00
C6       0.73190    -0.17164   0.51123   1.00
C6       0.54178    -0.10680   0.43478   1.00
C6       0.63962    -0.21240   0.48451   1.00
C6       0.48049    -0.05100   0.45009   1.00
C6       0.75437    -0.19739   0.47605   1.00
H2       0.57658    0.06048    0.42795   1.00
H2       0.78614    -0.13951   0.51458   1.00
H2       0.61569    0.01904    0.41608   1.00
H2       0.70386    -0.15524   0.52092   1.00
H2       0.52879    -0.01022   0.41197   1.00
H2       0.71692    -0.22379   0.51556   1.00
H2       0.50059    -0.13130   0.42372   1.00
H2       0.62201    -0.26577   0.48803   1.00
H2       0.58822    -0.09972   0.42759   1.00
H2       0.61064    -0.19635   0.49394   1.00
H2       0.52999    -0.14143   0.44759   1.00
H2       0.62767    -0.20920   0.46866   1.00
H2       0.48356    -0.00359   0.45512   1.00
H2       0.80941    -0.16782   0.47847   1.00
H2       0.44103    -0.07331   0.43844   1.00
H2       0.73727    -0.25000   0.48045   1.00
H2       0.46381    -0.08608   0.46294   1.00
H2       0.74479    -0.19709   0.45984   1.00
C4       0.63637    0.83441    0.01418   1.00
C4       0.68745    0.86019    -0.00128   1.00
C3       0.62931    0.87778    0.02844   1.00
C3       0.73025    0.93134    -0.00490   1.00
C3       0.59020    0.76265    0.01568   1.00
C3       0.69673    0.81380    -0.01375   1.00
C2       0.53098    0.78265    0.04482   1.00
C2       0.79301    0.91248    -0.03186   1.00
C3       0.57806    0.85286    0.04323   1.00
C3       0.78167    0.95681    -0.01965   1.00
C3       0.53849    0.73936    0.03090   1.00
C3       0.74993    0.84183    -0.02852   1.00
H1       0.66157    0.92905    0.02873   1.00
H1       0.72522    0.96730    0.00290   1.00
C5       0.59659    0.71620    0.00230   1.00
C5       0.65332    0.74159    -0.01138   1.00
H1       0.57552    0.88682    0.05301   1.00
H1       0.81100    1.00868    -0.02146   1.00
H1       0.50443    0.68874    0.03235   1.00
H1       0.75840    0.81048    -0.03758   1.00
C6       0.54306    0.64126    0.00264   1.00
C6       0.66835    0.69320    -0.02316   1.00
H2       0.49270    0.63628    0.00341   1.00
H2       0.72298    0.71185    -0.02267   1.00
H2       0.54045    0.61666    -0.01175   1.00
H2       0.64798    0.64418    -0.01560   1.00
C6       0.55406    0.60075    0.02010   1.00
C6       0.64098    0.68126    -0.04550   1.00
H2       0.56661    0.63020    0.03416   1.00
H2       0.65283    0.73000    -0.05230   1.00
C6       0.49430    0.52708    0.02477   1.00
C6       0.66636    0.64478    -0.06038   1.00
H2       0.59941    0.59756    0.01640   1.00
H2       0.58536    0.65154    -0.04485   1.00
C6       0.43092    0.52801    0.03330   1.00
C6       0.74385    0.68906    -0.06472   1.00
C6       0.47336    0.48098    0.00570   1.00
C6       0.65095    0.57443    -0.05213   1.00
C6       0.51859    0.49474    0.04117   1.00
C6       0.62828    0.63295    -0.08089   1.00
H2       0.44425    0.56104    0.04660   1.00
H2       0.75658    0.73952    -0.07027   1.00
H2       0.40859    0.54630    0.02206   1.00
H2       0.77402    0.69591    -0.05115   1.00
H2       0.39135    0.47700    0.03782   1.00
H2       0.76010    0.66536    -0.07617   1.00
H2       0.43512    0.42856    0.00943   1.00
H2       0.66438    0.54735    -0.06324   1.00
H2       0.45147    0.49886    -0.00583   1.00
H2       0.68021    0.58015    -0.03841   1.00
H2       0.51738    0.48058    -0.00086   1.00
H2       0.59691    0.54274    -0.04854   1.00
H2       0.53334    0.52502    0.05507   1.00
H2       0.63806    0.68124    -0.08749   1.00
H2       0.47835    0.44327    0.04505   1.00
H2       0.64465    0.60794    -0.09187   1.00
H2       0.56249    0.49140    0.03588   1.00
H2       0.57330    0.60079    -0.07889   1.00
C4       0.18461    0.35441    0.01699   1.00
C4       0.15882    0.29978    0.00266   1.00
C3       0.16857    0.40769    0.01600   1.00
C3       0.10965    0.29068    -0.01234   1.00
C3       0.22828    0.35673    0.03302   1.00
C3       0.18244    0.25186    0.00314   1.00
C2       0.23404    0.46311    0.04655   1.00
C2       0.10910    0.19128    -0.02696   1.00
C3       0.19218    0.46024    0.03036   1.00
C3       0.08573    0.23834    -0.02677   1.00
C3       0.25093    0.41091    0.04740   1.00
C3       0.15709    0.19951    -0.01190   1.00
H1       0.13968    0.41069    0.00468   1.00
H1       0.08887    0.32134    -0.01320   1.00
C5       0.24853    0.30611    0.03432   1.00
C5       0.22976    0.25669    0.01842   1.00
H1       0.17856    0.49700    0.02884   1.00
H1       0.05047    0.23470    -0.03724   1.00
H1       0.28167    0.41403    0.05909   1.00
H1       0.17303    0.16476    -0.01214   1.00
C6       0.28870    0.30501    0.05253   1.00
C6       0.25981    0.21020    0.01743   1.00
H2       0.26660    0.31285    0.06624   1.00
H2       0.27413    0.20764    0.00182   1.00
H2       0.28164    0.25449    0.05515   1.00
H2       0.30880    0.23231    0.02510   1.00
C6       0.36694    0.35755    0.05092   1.00
C6       0.21145    0.13742    0.02637   1.00
H2       0.37442    0.40635    0.04541   1.00
H2       0.15944    0.11879    0.02096   1.00
C6       0.41098    0.37178    0.07055   1.00
C6       0.23012    0.08068    0.02213   1.00
H2       0.38802    0.33960    0.03911   1.00
H2       0.20910    0.14267    0.04278   1.00
C6       0.39144    0.40770    0.08709   1.00
C6       0.22392    0.06220    -0.00072   1.00
C6       0.40437    0.30535    0.07940   1.00
C6       0.30306    0.10217    0.02955   1.00
C6       0.48700    0.42015    0.06500   1.00
C6       0.17925    0.01528    0.03385   1.00
H2       0.39452    0.45426    0.08121   1.00
H2       0.17330    0.04787    -0.00651   1.00
H2       0.33976    0.37479    0.09261   1.00
H2       0.26129    0.10482    -0.00976   1.00
H2       0.42550    0.42165    0.10014   1.00
H2       0.23241    0.01943    -0.00333   1.00
H2       0.43893    0.31637    0.09220   1.00
H2       0.31376    0.06048    0.02786   1.00
H2       0.35273    0.27137    0.08484   1.00
H2       0.34125    0.14527    0.02081   1.00
H2       0.41647    0.27832    0.06792   1.00
H2       0.30923    0.11683    0.04551   1.00
H2       0.49463    0.46825    0.05886   1.00
H2       0.12689    -0.00251   0.02901   1.00
H2       0.51985    0.43199    0.07828   1.00
H2       0.18996    -0.02608   0.03126   1.00
H2       0.50427    0.39702    0.05366   1.00
H2       0.18220    0.02470    0.05016   1.00
C4       0.16813    0.81446    0.01724   1.00
C4       0.13886    0.83969    0.00287   1.00
C3       0.23981    0.84103    0.01875   1.00
C3       0.17934    0.89781    -0.00949   1.00
C3       0.12482    0.76053    0.03072   1.00
C3       0.06641    0.80622    0.00060   1.00
C2       0.22759    0.76576    0.04695   1.00
C2       0.07990    0.88877    -0.02689   1.00
C3       0.26878    0.81775    0.03320   1.00
C3       0.15091    0.92149    -0.02400   1.00
C3       0.15637    0.73853    0.04529   1.00
C3       0.03950    0.83173    -0.01443   1.00
H1       0.27363    0.87783    0.00926   1.00
H1       0.23098    0.92553    -0.00828   1.00
C5       0.05211    0.72979    0.02935   1.00
C5       0.02288    0.74921    0.01321   1.00
H1       0.32087    0.83921    0.03356   1.00
H1       0.18290    0.96351    -0.03250   1.00
H1       0.12730    0.70063    0.05523   1.00
H1       -0.01173   0.80901    -0.01659   1.00
C6       0.00729    0.67792    0.04508   1.00
C6       -0.05312   0.70987    0.00917   1.00
H2       0.02926    0.69597    0.06007   1.00
H2       -0.06170   0.70193    -0.00711   1.00
H2       -0.04165   0.67557    0.04653   1.00
H2       -0.07630   0.65777    0.01471   1.00
C6       -0.00523   0.60445    0.04076   1.00
C6       -0.09198   0.74454    0.01847   1.00
H2       0.04277    0.60749    0.03637   1.00
H2       -0.06338   0.79933    0.01544   1.00
C6       -0.03771   0.55036    0.05812   1.00
C6       -0.16741   0.71717    0.01155   1.00
H2       -0.03796   0.58482    0.02739   1.00
H2       -0.09149   0.73983    0.03495   1.00
C6       0.01081    0.56906    0.07661   1.00
C6       -0.17164   0.73190    -0.01123   1.00
C6       -0.10680   0.54178    0.06522   1.00
C6       -0.21240   0.63962    0.01549   1.00
C6       -0.05100   0.48049    0.04991   1.00
C6       -0.19739   0.75438    0.02395   1.00
H2       0.06048    0.57658    0.07205   1.00
H2       -0.13951   0.78614    -0.01458   1.00
H2       0.01904    0.61570    0.08392   1.00
H2       -0.15524   0.70386    -0.02092   1.00
H2       -0.01022   0.52879    0.08803   1.00
H2       -0.22379   0.71692    -0.01556   1.00
H2       -0.13130   0.50059    0.07628   1.00
H2       -0.26577   0.62201    0.01197   1.00
H2       -0.09972   0.58822    0.07241   1.00
H2       -0.19635   0.61064    0.00606   1.00
H2       -0.14143   0.52999    0.05241   1.00
H2       -0.20920   0.62768    0.03134   1.00
H2       -0.00359   0.48357    0.04488   1.00
H2       -0.16782   0.80941    0.02153   1.00
H2       -0.07331   0.44103    0.06156   1.00
H2       -0.25000   0.73727    0.01955   1.00
H2       -0.08608   0.46381    0.03706   1.00
H2       -0.19708   0.74479    0.04016   1.00
C4       0.16551    0.35303    0.51746   1.00
C4       0.13971    0.29937    0.50280   1.00
C3       0.12221    0.37002    0.52864   1.00
C3       0.06856    0.25444    0.49983   1.00
C3       0.23723    0.39178    0.52125   1.00
C3       0.18610    0.28946    0.49052   1.00
C2       0.21728    0.45931    0.54782   1.00
C2       0.08742    0.19297    0.47247   1.00
C3       0.14714    0.42128    0.54344   1.00
C3       0.04308    0.20305    0.48507   1.00
C3       0.26051    0.44331    0.53653   1.00
C3       0.15808    0.23678    0.47559   1.00
H1       0.07101    0.34624    0.52631   1.00
H1       0.03257    0.25693    0.50842   1.00
C5       0.28362    0.37895    0.50987   1.00
C5       0.25830    0.33125    0.49339   1.00
H1       0.11323    0.43088    0.55104   1.00
H1       -0.00879   0.17250    0.48364   1.00
H1       0.31109    0.47162    0.53976   1.00
H1       0.18943    0.22846    0.46648   1.00
C6       0.35845    0.41526    0.51552   1.00
C6       0.30675    0.32503    0.47889   1.00
H2       0.36307    0.41494    0.53197   1.00
H2       0.28846    0.32202    0.46342   1.00
H2       0.38283    0.38660    0.51080   1.00
H2       0.35596    0.37166    0.47832   1.00
C6       0.39956    0.48932    0.50669   1.00
C6       0.31807    0.26377    0.48396   1.00
H2       0.37038    0.51541    0.50880   1.00
H2       0.26909    0.21860    0.48746   1.00
C6       0.47314    0.53687    0.51513   1.00
C6       0.35458    0.24310    0.46761   1.00
H2       0.40304    0.48508    0.49028   1.00
H2       0.34748    0.27604    0.49801   1.00
C6       0.47189    0.55452    0.53780   1.00
C6       0.31065    0.21442    0.44818   1.00
C6       0.51886    0.50446    0.51256   1.00
C6       0.42525    0.30394    0.46182   1.00
C6       0.50613    0.60478    0.50302   1.00
C6       0.36573    0.18597    0.47655   1.00
H2       0.43911    0.57651    0.54018   1.00
H2       0.25997    0.17206    0.45180   1.00
H2       0.45312    0.50951    0.54739   1.00
H2       0.30429    0.25329    0.44040   1.00
H2       0.52288    0.59138    0.54316   1.00
H2       0.33433    0.19579    0.43746   1.00
H2       0.57126    0.53994    0.51715   1.00
H2       0.45231    0.28785    0.45153   1.00
H2       0.50050    0.45887    0.52190   1.00
H2       0.42002    0.34376    0.45418   1.00
H2       0.51948    0.49023    0.49679   1.00
H2       0.45671    0.32599    0.47529   1.00
H2       0.47614    0.63018    0.50450   1.00
H2       0.31719    0.14140    0.48071   1.00
H2       0.55757    0.63997    0.50846   1.00
H2       0.39075    0.16945    0.46562   1.00
H2       0.50973    0.59583    0.48692   1.00
H2       0.39763    0.20358    0.49011   1.00
C4       0.64613    0.81477    0.51717   1.00
C4       0.69906    0.84250    0.50228   1.00
C3       0.64487    0.77195    0.53320   1.00
C3       0.75796    0.83531    0.50359   1.00
C3       0.59193    0.82982    0.51621   1.00
C3       0.69378    0.87906    0.48535   1.00
C2       0.54093    0.76139    0.54787   1.00
C2       0.80452    0.89565    0.47166   1.00
C3       0.59412    0.74630    0.54816   1.00
C3       0.80898    0.86072    0.48872   1.00
C3       0.54143    0.80299    0.53180   1.00
C3       0.74667    0.90382    0.47048   1.00
H1       0.68040    0.75724    0.53450   1.00
H1       0.76634    0.81192    0.51550   1.00
C5       0.58889    0.87028    0.49995   1.00
C5       0.63710    0.89043    0.48365   1.00
H1       0.59625    0.71592    0.55937   1.00
H1       0.85006    0.85361    0.49051   1.00
H1       0.50235    0.81296    0.53171   1.00
H1       0.74449    0.92966    0.45815   1.00
C6       0.53546    0.89181    0.50031   1.00
C6       0.62846    0.92276    0.46461   1.00
H2       0.53238    0.90853    0.51557   1.00
H2       0.63841    0.90007    0.45142   1.00
H2       0.55133    0.93808    0.49158   1.00
H2       0.57552    0.90865    0.46219   1.00
C6       0.46398    0.83502    0.49249   1.00
C6       0.67353    1.00247    0.46448   1.00
H2       0.45199    0.78588    0.49903   1.00
H2       0.72488    1.01745    0.46979   1.00
C6       0.40159    0.84546    0.49635   1.00
C6       0.68048    1.04013    0.44394   1.00
H2       0.46817    0.82950    0.47618   1.00
H2       0.65278    1.02236    0.47581   1.00
C6       0.38521    0.84289    0.51929   1.00
C6       0.71961    1.02296    0.42785   1.00
C6       0.41350    0.91377    0.48735   1.00
C6       0.60995    1.02269    0.43531   1.00
C6       0.33799    0.78668    0.48582   1.00
C6       0.72185    1.11820    0.44779   1.00
H2       0.37762    0.79571    0.52618   1.00
H2       0.76923    1.03367    0.43361   1.00
H2       0.42621    0.88543    0.52746   1.00
H2       0.69127    0.96944    0.42348   1.00
H2       0.33889    0.84546    0.52174   1.00
H2       0.72833    1.05302    0.41409   1.00
H2       0.36792    0.91831    0.48884   1.00
H2       0.61552    1.05286    0.42179   1.00
H2       0.45486    0.95706    0.49521   1.00
H2       0.58048    0.96909    0.43103   1.00
H2       0.42654    0.91751    0.47130   1.00
H2       0.58076    1.03297    0.44651   1.00
H2       0.32688    0.73719    0.49179   1.00
H2       0.77251    1.13338    0.45372   1.00
H2       0.29286    0.79149    0.48820   1.00
H2       0.72848    1.14680    0.43383   1.00
H2       0.34588    0.78664    0.46949   1.00
H2       0.69608    1.13375    0.45874   1.00
C4       0.18532    0.83151    0.51719   1.00
C4       0.15758    0.85674    0.50231   1.00
C3       0.22917    0.87338    0.53301   1.00
C3       0.16585    0.92330    0.50344   1.00
C3       0.16922    0.76191    0.51645   1.00
C3       0.11988    0.81444    0.48559   1.00
C2       0.23877    0.77971    0.54787   1.00
C2       0.10437    0.90903    0.47171   1.00
C3       0.25487    0.84831    0.54795   1.00
C3       0.14040    0.94889    0.48857   1.00
C3       0.19613    0.73828    0.53202   1.00
C3       0.09513    0.84256    0.47071   1.00
H1       0.24464    0.92384    0.53414   1.00
H1       0.19009    0.95545    0.51521   1.00
C5       0.12767    0.71804    0.50040   1.00
C5       0.10743    0.74596    0.48408   1.00
H1       0.28602    0.88106    0.55900   1.00
H1       0.14832    0.99743    0.49022   1.00
H1       0.18544    0.68900    0.53208   1.00
H1       0.06851    0.81423    0.45853   1.00
C6       0.10510    0.64283    0.50100   1.00
C6       0.07385    0.70437    0.46524   1.00
H2       0.08888    0.62381    0.51636   1.00
H2       0.09629    0.73634    0.45190   1.00
H2       0.05834    0.61259    0.49247   1.00
H2       0.08710    0.66490    0.46288   1.00
C6       0.16084    0.62677    0.49308   1.00
C6       -0.00576   0.67076    0.46541   1.00
H2       0.21046    0.66368    0.49939   1.00
H2       -0.01979   0.70790    0.47066   1.00
C6       0.14946    0.55368    0.49715   1.00
C6       -0.04453   0.63955    0.44505   1.00
H2       0.16575    0.63576    0.47672   1.00
H2       -0.02565   0.63061    0.47689   1.00
C6       0.15281    0.54070    0.52011   1.00
C6       -0.02729   0.69533    0.42877   1.00
C6       0.08040    0.49757    0.48847   1.00
C6       -0.02848   0.58538    0.43650   1.00
C6       0.20720    0.54740    0.48647   1.00
C6       -0.12238   0.60399    0.44919   1.00
H2       0.20054    0.58013    0.52677   1.00
H2       -0.03702   0.73497    0.43446   1.00
H2       0.11096    0.54020    0.52840   1.00
H2       0.02599    0.71964    0.42420   1.00
H2       0.14956    0.49156    0.52269   1.00
H2       -0.05806   0.67372    0.41514   1.00
H2       0.07514    0.44718    0.49009   1.00
H2       -0.05941   0.56048    0.42312   1.00
H2       0.03780    0.49668    0.49644   1.00
H2       0.02487    0.60863    0.43202   1.00
H2       0.07614    0.50632    0.47240   1.00
H2       -0.03882   0.54624    0.44782   1.00
H2       0.25717    0.58553    0.49221   1.00
H2       -0.13658   0.64027    0.45507   1.00
H2       0.20172    0.49724    0.48899   1.00
H2       -0.15171   0.58173    0.43536   1.00
H2       0.20664    0.55470    0.47012   1.00
H2       -0.13798   0.56308    0.46029   1.00
C4       0.36349    0.16525    0.98577   1.00
C4       0.31077    0.13547    1.00069   1.00
C3       0.41689    0.23452    0.98681   1.00
C3       0.31166    0.17054    1.01873   1.00
C3       0.36359    0.12502    0.96907   1.00
C3       0.25465    0.06803    0.99771   1.00
C2       0.47202    0.22462    0.95617   1.00
C2       0.20249    0.07658    1.03038   1.00
C3       0.46973    0.26332    0.97253   1.00
C3       0.25908    0.14225    1.03310   1.00
C3       0.41853    0.15617    0.95492   1.00
C3       0.20195    0.04120    1.01265   1.00
H1       0.41902    0.26685    0.99786   1.00
H1       0.35089    0.21771    1.02221   1.00
C5       0.30963    0.05582    0.96675   1.00
C5       0.25235    0.02910    0.98026   1.00
H1       0.50688    0.31350    0.97417   1.00
H1       0.26262    0.17027    1.04575   1.00
H1       0.42062    0.12907    0.94292   1.00
H1       0.16100    -0.00639   1.01099   1.00
C6       0.31419    0.01173    0.95026   1.00
C6       0.18933    -0.03919   0.97620   1.00
H2       0.36581    0.01976    0.94991   1.00
H2       0.14419    -0.03476   0.97884   1.00
H2       0.28451    -0.04216   0.95400   1.00
H2       0.18410    -0.05239   0.96020   1.00
C6       0.29144    0.02366    0.92892   1.00
C6       0.18721    -0.09891   0.98881   1.00
H2       0.31350    0.07836    0.92628   1.00
H2       0.20222    -0.08236   1.00447   1.00
C6       0.30813    -0.00738   0.91004   1.00
C6       0.11830    -0.16825   0.98934   1.00
H2       0.23636    0.00320    0.92941   1.00
H2       0.22669    -0.10844   0.98284   1.00
C6       0.38606    0.02708    0.90631   1.00
C6       0.06180    -0.16152   1.00060   1.00
C6       0.27803    -0.08535   0.91227   1.00
C6       0.09319    -0.19640   0.96771   1.00
C6       0.27576    0.00533    0.89098   1.00
C6       0.12973    -0.22120   1.00105   1.00
H2       0.40906    0.08235    0.90500   1.00
H2       0.07839    -0.14069   1.01582   1.00
H2       0.41161    0.01662    0.91861   1.00
H2       0.04817    -0.12814   0.99249   1.00
H2       0.39699    0.00848    0.89235   1.00
H2       0.01545    -0.21098   1.00212   1.00
H2       0.28570    -0.10722   0.89845   1.00
H2       0.04782    -0.24696   0.96828   1.00
H2       0.30250    -0.09693   0.92466   1.00
H2       0.07991    -0.16330   0.95926   1.00
H2       0.22341    -0.11070   0.91534   1.00
H2       0.13259    -0.20028   0.95930   1.00
H2       0.29588    0.05981    0.88858   1.00
H2       0.14686    -0.20408   1.01653   1.00
H2       0.28642    -0.01509   0.87734   1.00
H2       0.08280    -0.27048   1.00194   1.00
H2       0.22048    -0.01898   0.89252   1.00
H2       0.16818    -0.22924   0.99359   1.00
C4       0.81553    0.64542    0.98306   1.00
C4       0.84305    0.69798    0.99807   1.00
C3       0.78324    0.65045    0.96512   1.00
C3       0.84663    0.76206    0.99520   1.00
C3       0.81993    0.58512    0.98587   1.00
C3       0.86827    0.68696    1.01673   1.00
C2       0.76284    0.54066    0.95223   1.00
C2       0.89560    0.80305    1.02880   1.00
C3       0.75796    0.59990    0.95011   1.00
C3       0.87176    0.81294    1.01012   1.00
C3       0.79390    0.53500    0.97016   1.00
C3       0.89311    0.73993    1.03157   1.00
H1       0.77625    0.69073    0.96238   1.00
H1       0.83174    0.77444    0.98209   1.00
C5       0.84930    0.57586    1.00401   1.00
C5       0.86864    0.62459    1.02014   1.00
H1       0.73548    0.60671    0.93748   1.00
H1       0.87274    0.85794    1.00715   1.00
H1       0.79652    0.49165    0.97155   1.00
H1       0.91104    0.73381    1.04508   1.00
C6       0.86021    0.51533    1.00582   1.00
C6       0.88865    0.61068    1.04074   1.00
H2       0.88099    0.50908    0.99159   1.00
H2       0.86444    0.62518    1.05248   1.00
H2       0.90095    0.52522    1.01640   1.00
H2       0.86637    0.55635    1.04354   1.00
C6       0.79424    0.44800    1.01223   1.00
C6       0.96777    0.64635    1.04386   1.00
H2       0.75065    0.44276    1.00360   1.00
H2       0.99176    0.69879    1.03829   1.00
C6       0.79512    0.37956    1.01022   1.00
C6       0.99450    0.64831    1.06589   1.00
H2       0.78330    0.45370    1.02802   1.00
H2       0.98696    0.62079    1.03405   1.00
C6       0.79948    0.36195    0.98772   1.00
C6       0.97881    0.69319    1.08017   1.00
C6       0.85498    0.38175    1.02223   1.00
C6       0.96384    0.57582    1.07503   1.00
C6       0.72753    0.32102    1.01907   1.00
C6       1.07317    0.68018    1.06506   1.00
H2       0.75851    0.36111    0.97875   1.00
H2       0.99885    0.74444    1.07397   1.00
H2       0.84780    0.39893    0.98088   1.00
H2       0.92419    0.67140    1.08244   1.00
H2       0.79529    0.31197    0.98638   1.00
H2       1.00173    0.69809    1.09508   1.00
H2       0.85230    0.33227    1.02192   1.00
H2       0.98645    0.57732    1.08978   1.00
H2       0.90391    0.41900    1.01573   1.00
H2       0.90899    0.55282    1.07724   1.00
H2       0.85393    0.39545    1.03803   1.00
H2       0.97293    0.54275    1.06506   1.00
H2       0.68353    0.31680    1.01095   1.00
H2       1.09747    0.73183    1.05890   1.00
H2       0.72553    0.27196    1.01788   1.00
H2       1.09434    0.68307    1.08015   1.00
H2       0.72213    0.32983    1.03506   1.00
H2       1.08747    0.64995    1.05552   1.00
C4       0.83154    0.18534    0.98280   1.00
C4       0.85677    0.15759    0.99768   1.00
C3       0.87346    0.22937    0.96703   1.00
C3       0.92341    0.16605    0.99659   1.00
C3       0.76188    0.16906    0.98351   1.00
C3       0.81439    0.11970    1.01437   1.00
C2       0.77974    0.23879    0.95213   1.00
C2       0.90906    0.10437    1.02828   1.00
C3       0.84840    0.25507    0.95208   1.00
C3       0.94900    0.14060    1.01145   1.00
C3       0.73825    0.19598    0.96794   1.00
C3       0.84252    0.09495    1.02925   1.00
H1       0.92396    0.24496    0.96592   1.00
H1       0.95563    0.19044    0.98484   1.00
C5       0.71794    0.12731    0.99952   1.00
C5       0.74584    0.10706    1.01584   1.00
H1       0.88118    0.28635    0.94107   1.00
H1       0.99759    0.14865    1.00983   1.00
H1       0.68893    0.18517    0.96785   1.00
H1       0.81412    0.06819    1.04141   1.00
C6       0.64270    0.10458    0.99888   1.00
C6       0.70415    0.07327    1.03465   1.00
H2       0.62381    0.08844    0.98350   1.00
H2       0.73600    0.09567    1.04801   1.00
H2       0.61248    0.05773    1.00737   1.00
H2       0.66457    0.08637    1.03700   1.00
C6       0.62640    0.16013    1.00682   1.00
C6       0.67072    -0.00633   1.03443   1.00
H2       0.66326    0.20983    1.00055   1.00
H2       0.70799    -0.02019   1.02919   1.00
C6       0.55326    0.14859    1.00272   1.00
C6       0.63942    -0.04528   1.05476   1.00
H2       0.63527    0.16493    1.02318   1.00
H2       0.63065    -0.02621   1.02292   1.00
C6       0.54043    0.15207    0.97975   1.00
C6       0.69511    -0.02804   1.07107   1.00
C6       0.49721    0.07940    1.01134   1.00
C6       0.58506    -0.02947   1.06329   1.00
C6       0.54674    0.20615    1.01342   1.00
C6       0.60407    -0.12309   1.05057   1.00
H2       0.57983    0.19990    0.97313   1.00
H2       0.73488    -0.03759   1.06539   1.00
H2       0.54011    0.11034    0.97144   1.00
H2       0.71927    0.02521    1.07568   1.00
H2       0.49125    0.14871    0.97715   1.00
H2       0.67346    -0.05892   1.08468   1.00
H2       0.44678    0.07402    1.00969   1.00
H2       0.56012    -0.06053   1.07665   1.00
H2       0.49649    0.03692    1.00334   1.00
H2       0.60816    0.02384    1.06781   1.00
H2       0.50586    0.07505    1.02741   1.00
H2       0.54598    -0.03982   1.05195   1.00
H2       0.58482    0.25620    1.00771   1.00
H2       0.64048    -0.13712   1.04470   1.00
H2       0.49654    0.20055    1.01087   1.00
H2       0.58175    -0.15255   1.06437   1.00
H2       0.55392    0.20549    1.02977   1.00
H2       0.56322    -0.13870   1.03944   1.00
C4       0.49722    0.97910    0.81628   1.00
C4       0.52616    1.03371    0.83061   1.00
C3       0.42716    0.92747    0.81677   1.00
C3       0.48577    1.04456    0.84507   1.00
C3       0.53923    0.97510    0.80077   1.00
C3       0.59814    1.07979    0.83070   1.00
C2       0.43789    0.87051    0.78669   1.00
C2       0.58499    1.14212    0.86027   1.00
C3       0.39820    0.87498    0.80239   1.00
C3       0.51419    1.09686    0.85952   1.00
C3       0.50768    0.92104    0.78634   1.00
C3       0.62512    1.13216    0.84574   1.00
H1       0.39468    0.92568    0.82772   1.00
H1       0.43409    1.01529    0.84551   1.00
C5       0.61073    1.02395    0.80001   1.00
C5       0.64109    1.07319    0.81597   1.00
H1       0.34728    0.83946    0.80353   1.00
H1       0.48232    1.10181    0.86959   1.00
H1       0.53576    0.91676    0.77501   1.00
H1       0.67610    1.16563    0.84637   1.00
C6       0.65301    1.02341    0.78229   1.00
C6       0.71779    1.11764    0.81758   1.00
H2       0.62473    1.01651    0.76828   1.00
H2       0.73287    1.11968    0.83338   1.00
H2       0.69779    1.07321    0.77989   1.00
H2       0.74402    1.09407    0.81037   1.00
C6       0.67603    0.96895    0.78452   1.00
C6       0.74537    1.19079    0.80850   1.00
H2       0.63312    0.92084    0.78983   1.00
H2       0.71284    1.21105    0.81340   1.00
C6       0.70663    0.95323    0.76535   1.00
C6       0.82102    1.24573    0.81329   1.00
H2       0.71380    0.98580    0.79668   1.00
H2       0.73934    1.18566    0.79204   1.00
C6       0.65253    0.91867    0.74837   1.00
C6       0.83151    1.26419    0.83617   1.00
C6       0.76865    1.01857    0.75682   1.00
C6       0.87134    1.22186    0.80662   1.00
C6       0.73133    0.90295    0.77151   1.00
C6       0.83892    1.31174    0.80136   1.00
H2       0.60757    0.87293    0.75401   1.00
H2       0.79593    1.28020    0.84144   1.00
H2       0.63595    0.95288    0.74243   1.00
H2       0.82384    1.22103    0.84539   1.00
H2       0.67299    0.90364    0.73566   1.00
H2       0.88311    1.30582    0.83913   1.00
H2       0.79256    1.00639    0.74437   1.00
H2       0.92411    1.26234    0.80868   1.00
H2       0.75319    1.05382    0.75097   1.00
H2       0.86402    1.17820    0.81555   1.00
H2       0.80690    1.04467    0.76859   1.00
H2       0.86404    1.20718    0.79066   1.00
H2       0.68921    0.85552    0.77746   1.00
H2       0.80524    1.33119    0.80568   1.00
H2       0.75277    0.89003    0.75856   1.00
H2       0.89126    1.35190    0.80432   1.00
H2       0.77068    0.92502    0.78319   1.00
H2       0.83383    1.30231    0.78505   1.00
C4       0.02034    0.51887    0.81609   1.00
C4       -0.03416   0.49364    0.83046   1.00
C3       0.06547    0.49232    0.81459   1.00
C3       -0.05178   0.43553    0.84283   1.00
C3       0.03094    0.57278    0.80261   1.00
C3       -0.07316   0.52708    0.83273   1.00
C2       0.12850    0.56756    0.78638   1.00
C2       -0.14220   0.44456    0.86022   1.00
C3       0.11772    0.51560    0.80014   1.00
C3       -0.10389   0.41185    0.85734   1.00
C3       0.08449    0.59478    0.78803   1.00
C3       -0.12558   0.50158    0.84776   1.00
H1       0.06251    0.45553    0.82408   1.00
H1       -0.02784   0.40783    0.84162   1.00
C5       -0.01104   0.60350    0.80396   1.00
C5       -0.05970   0.58408    0.82011   1.00
H1       0.14837    0.49416    0.79978   1.00
H1       -0.11391   0.36984    0.86584   1.00
H1       0.09331    0.63266    0.77810   1.00
H1       -0.15410   0.52429    0.84991   1.00
C6       -0.00401   0.65535    0.78823   1.00
C6       -0.09638   0.62340    0.82414   1.00
H2       -0.00008   0.63729    0.77325   1.00
H2       -0.09702   0.63136    0.84042   1.00
H2       -0.05062   0.65768    0.78678   1.00
H2       -0.06747   0.67550    0.81860   1.00
C6       0.05692    0.72883    0.79255   1.00
C6       -0.16991   0.58870    0.81484   1.00
H2       0.10189    0.72581    0.79694   1.00
H2       -0.19609   0.53392    0.81788   1.00
C6       0.07851    0.78290    0.77518   1.00
C6       -0.21798   0.61606    0.82176   1.00
H2       0.04381    0.74846    0.80591   1.00
H2       -0.16471   0.59340    0.79836   1.00
C6       0.10835    0.76420    0.75670   1.00
C6       -0.23695   0.60135    0.84453   1.00
C6       0.01800    0.79145    0.76808   1.00
C6       -0.18546   0.69360    0.81781   1.00
C6       0.13509    0.85279    0.78339   1.00
C6       -0.28517   0.57882    0.80936   1.00
H2       0.15051    0.75670    0.76126   1.00
H2       -0.25904   0.54711    0.84789   1.00
H2       0.06995    0.71755    0.74939   1.00
H2       -0.19251   0.62941    0.85423   1.00
H2       0.12757    0.80446    0.74528   1.00
H2       -0.27413   0.61631    0.84887   1.00
H2       0.03466    0.83263    0.75702   1.00
H2       -0.22123   0.71120    0.82132   1.00
H2       -0.02136   0.74500    0.76089   1.00
H2       -0.14042   0.72260    0.82724   1.00
H2       -0.00486   0.80324    0.78089   1.00
H2       -0.17031   0.70553    0.80196   1.00
H2       0.17943    0.84973    0.78842   1.00
H2       -0.31062   0.52379    0.81178   1.00
H2       0.15222    0.89224    0.77174   1.00
H2       -0.32069   0.59592    0.81375   1.00
H2       0.11667    0.86947    0.79623   1.00
H2       -0.27529   0.58839    0.79315   1.00
C4       0.48115    0.50149    0.81610   1.00
C4       0.50639    0.47223    0.83046   1.00
C3       0.50753    0.57316    0.81464   1.00
C3       0.56436    0.51273    0.84288   1.00
C3       0.42740    0.45819    0.80257   1.00
C3       0.47310    0.39977    0.83268   1.00
C2       0.43244    0.56096    0.78638   1.00
C2       0.55548    0.41327    0.86022   1.00
C3       0.48425    0.60213    0.80019   1.00
C3       0.58804    0.48430    0.85739   1.00
C3       0.40539    0.48975    0.78799   1.00
C3       0.49859    0.37285    0.84771   1.00
H1       0.54419    0.60696    0.82416   1.00
H1       0.59196    0.56439    0.84171   1.00
C5       0.39684    0.38549    0.80387   1.00
C5       0.41625    0.35623    0.82002   1.00
H1       0.50557    0.65420    0.79987   1.00
H1       0.62995    0.51631    0.86592   1.00
H1       0.36762    0.46069    0.77802   1.00
H1       0.47599    0.32162    0.84983   1.00
C6       0.34518    0.34071    0.78810   1.00
C6       0.37707    0.28019    0.82399   1.00
H2       0.36333    0.36284    0.77313   1.00
H2       0.36899    0.27146    0.84026   1.00
H2       0.34301    0.29186    0.78662   1.00
H2       0.32500    0.25693    0.81842   1.00
C6       0.27159    0.32792    0.79237   1.00
C6       0.41202    0.24160    0.81469   1.00
H2       0.27443    0.37582    0.79678   1.00
H2       0.46677    0.27031    0.81777   1.00
C6       0.21768    0.29547    0.77496   1.00
C6       0.38479    0.16615    0.82156   1.00
H2       0.25192    0.29506    0.80571   1.00
H2       0.40745    0.24222    0.79821   1.00
C6       0.23642    0.34414    0.75651   1.00
C6       0.39935    0.16177    0.84434   1.00
C6       0.20938    0.22654    0.76782   1.00
C6       0.30730    0.12100    0.81755   1.00
C6       0.14766    0.28190    0.78313   1.00
C6       0.42227    0.13645    0.80917   1.00
H2       0.24373    0.39370    0.76110   1.00
H2       0.45354    0.19400    0.84774   1.00
H2       0.28317    0.35257    0.74922   1.00
H2       0.37112    0.17796    0.85403   1.00
H2       0.19625    0.32310    0.74506   1.00
H2       0.38449    0.10961    0.84864   1.00
H2       0.16831    0.20203    0.75673   1.00
H2       0.28981    0.06763    0.82103   1.00
H2       0.25595    0.23382    0.76066   1.00
H2       0.27813    0.13684    0.82698   1.00
H2       0.19758    0.19181    0.78061   1.00
H2       0.29547    0.12429    0.80170   1.00
H2       0.15053    0.32919    0.78818   1.00
H2       0.47728    0.16614    0.81163   1.00
H2       0.10831    0.25959    0.77144   1.00
H2       0.40528    0.08383    0.81353   1.00
H2       0.13096    0.24670    0.79595   1.00
H2       0.41282    0.13687    0.79295   1.00
C4       0.30240    0.16172    0.34726   1.00
C4       0.35453    0.18670    0.33212   1.00
C3       0.26122    0.19192    0.35086   1.00
C3       0.36435    0.23882    0.31814   1.00
C3       0.29033    0.10447    0.35943   1.00
C3       0.39896    0.15901    0.33068   1.00
C2       0.19471    0.10920    0.37718   1.00
C2       0.46207    0.23960    0.30215   1.00
C3       0.20878    0.16635    0.36528   1.00
C3       0.41665    0.26479    0.30366   1.00
C3       0.23617    0.07976    0.37388   1.00
C3       0.45182    0.18713    0.31580   1.00
H1       0.26824    0.23404    0.34327   1.00
H1       0.33345    0.25941    0.31781   1.00
C5       0.33200    0.07370    0.35709   1.00
C5       0.38977    0.10449    0.34378   1.00
H1       0.18073    0.19026    0.36709   1.00
H1       0.42120    0.30257    0.29407   1.00
H1       0.22573    0.03887    0.38271   1.00
H1       0.48470    0.16910    0.31440   1.00
C6       0.31405    0.00884    0.36851   1.00
C6       0.44149    0.08069    0.34355   1.00
H2       0.25917    -0.02570   0.36764   1.00
H2       0.49262    0.12506    0.34318   1.00
H2       0.33350    -0.02054   0.36090   1.00
H2       0.44220    0.05715    0.35784   1.00
C6       0.33987    0.02186    0.39102   1.00
C6       0.43003    0.02997    0.32580   1.00
H2       0.32913    0.05936    0.39794   1.00
H2       0.41936    0.04868    0.31178   1.00
C6       0.31161    -0.04127   0.40551   1.00
C6       0.48845    0.01391    0.32130   1.00
H2       0.39543    0.04619    0.39071   1.00
H2       0.38349    -0.01802   0.32910   1.00
C6       0.23407    -0.07248   0.40940   1.00
C6       0.55361    0.07762    0.31332   1.00
C6       0.32526    -0.09716   0.39706   1.00
C6       0.50668    -0.01390   0.34032   1.00
C6       0.34846    -0.01748   0.42628   1.00
C6       0.46369    -0.04162   0.30454   1.00
H2       0.22260    -0.03400   0.41507   1.00
H2       0.54222    0.09916    0.30007   1.00
H2       0.20459    -0.09409   0.39560   1.00
H2       0.57621    0.11730    0.32483   1.00
H2       0.21583    -0.11338   0.42059   1.00
H2       0.59231    0.06482    0.30890   1.00
H2       0.30979    -0.13871   0.40792   1.00
H2       0.54392    -0.02950   0.33667   1.00
H2       0.29668    -0.11900   0.38312   1.00
H2       0.52880    0.02491    0.35212   1.00
H2       0.37934    -0.07617   0.39379   1.00
H2       0.46139    -0.05796   0.34650   1.00
H2       0.33984    0.02161    0.43303   1.00
H2       0.45080    -0.02423   0.29067   1.00
H2       0.33009    -0.05980   0.43699   1.00
H2       0.50301    -0.05428   0.30077   1.00
H2       0.40338    0.00384    0.42460   1.00
H2       0.41850    -0.08846   0.30944   1.00
C4       0.86521    0.69658    0.34764   1.00
C4       0.84020    0.64557    0.33216   1.00
C3       0.91017    0.69936    0.36321   1.00
C3       0.86391    0.59830    0.32991   1.00
C3       0.84492    0.74709    0.34780   1.00
C3       0.78962    0.64096    0.31825   1.00
C2       0.91846    0.80169    0.37836   1.00
C2       0.78726    0.54025    0.30150   1.00
C3       0.93632    0.75045    0.37805   1.00
C3       0.83809    0.54700    0.31513   1.00
C3       0.87301    0.79848    0.36312   1.00
C3       0.76438    0.58774    0.30348   1.00
H1       0.92507    0.66396    0.36446   1.00
H1       0.90132    0.59980    0.33880   1.00
C5       0.79754    0.74525    0.33303   1.00
C5       0.76585    0.68891    0.31922   1.00
H1       0.96876    0.74977    0.38882   1.00
H1       0.85712    0.51432    0.31435   1.00
H1       0.86017    0.83553    0.36365   1.00
H1       0.72806    0.58253    0.29341   1.00
C6       0.78219    0.80304    0.33206   1.00
C6       0.70723    0.67903    0.30584   1.00
H2       0.82972    0.85139    0.33349   1.00
H2       0.66790    0.62537    0.30600   1.00
H2       0.76510    0.80773    0.31705   1.00
H2       0.68017    0.70295    0.31228   1.00
C6       0.72814    0.79641    0.34811   1.00
C6       0.72983    0.70604    0.28368   1.00
H2       0.73956    0.78182    0.36277   1.00
H2       0.76530    0.69025    0.27812   1.00
C6       0.71945    0.86004    0.35160   1.00
C6       0.67246    0.68521    0.26738   1.00
H2       0.67881    0.75357    0.34361   1.00
H2       0.75943    0.76167    0.28436   1.00
C6       0.78423    0.92025    0.36114   1.00
C6       0.63479    0.60744    0.26310   1.00
C6       0.70220    0.88411    0.33160   1.00
C6       0.61987    0.70638    0.27383   1.00
C6       0.65954    0.84000    0.36662   1.00
C6       0.70588    0.72240    0.24722   1.00
H2       0.79841    0.90459    0.37513   1.00
H2       0.67068    0.59065    0.25883   1.00
H2       0.82752    0.93973    0.35083   1.00
H2       0.60658    0.57818    0.27634   1.00
H2       0.77601    0.96259    0.36480   1.00
H2       0.59821    0.59412    0.25074   1.00
H2       0.69146    0.92531    0.33442   1.00
H2       0.58294    0.69606    0.26176   1.00
H2       0.74472    0.90321    0.32098   1.00
H2       0.59151    0.67811    0.28720   1.00
H2       0.65759    0.84226    0.32435   1.00
H2       0.64524    0.76070    0.27735   1.00
H2       0.66950    0.82325    0.38110   1.00
H2       0.74305    0.70863    0.24188   1.00
H2       0.65174    0.88302    0.36964   1.00
H2       0.66781    0.70910    0.23530   1.00
H2       0.61196    0.79855    0.36054   1.00
H2       0.73217    0.77765    0.24917   1.00
C4       0.83182    0.13503    0.34757   1.00
C4       0.80593    0.16018    0.33210   1.00
C3       0.78894    0.08726    0.36249   1.00
C3       0.73478    0.13408    0.32917   1.00
C3       0.90320    0.15805    0.34840   1.00
C3       0.85222    0.21340    0.31890   1.00
C2       0.88362    0.08158    0.37825   1.00
C2       0.75361    0.21330    0.30148   1.00
C3       0.81387    0.06102    0.37732   1.00
C3       0.70930    0.15997    0.31441   1.00
C3       0.92649    0.12979    0.36366   1.00
C3       0.82421    0.23860    0.30413   1.00
H1       0.73808    0.07025    0.36328   1.00
H1       0.69876    0.09481    0.33752   1.00
C5       0.94929    0.20823    0.33431   1.00
C5       0.92428    0.23976    0.32056   1.00
H1       0.78026    0.02650    0.38760   1.00
H1       0.65744    0.13912    0.31311   1.00
H1       0.97681    0.14453    0.36465   1.00
H1       0.85551    0.27673    0.29456   1.00
C6       1.02344    0.22668    0.33398   1.00
C6       0.97294    0.30086    0.30798   1.00
H2       1.02633    0.18017    0.33507   1.00
H2       0.95644    0.33855    0.30832   1.00
H2       1.04669    0.24625    0.31927   1.00
H2       1.02300    0.32879    0.31499   1.00
C6       1.06744    0.27956    0.35076   1.00
C6       0.98118    0.28182    0.28571   1.00
H2       1.03964    0.26538    0.36514   1.00
H2       0.93111    0.24556    0.27952   1.00
C6       1.14052    0.29092    0.35483   1.00
C6       1.01778    0.34152    0.27011   1.00
H2       1.07231    0.32856    0.34667   1.00
H2       1.00908    0.25406    0.28635   1.00
C6       1.13774    0.22631    0.36386   1.00
C6       0.97555    0.37697    0.26581   1.00
C6       1.18434    0.31217    0.33527   1.00
C6       1.08993    0.39540    0.27747   1.00
C6       1.17666    0.34930    0.37056   1.00
C6       1.02563    0.31164    0.24975   1.00
H2       1.10623    0.20934    0.37751   1.00
H2       0.92391    0.34008    0.26090   1.00
H2       1.11668    0.18429    0.35306   1.00
H2       0.97158    0.40277    0.27924   1.00
H2       1.18859    0.23619    0.36794   1.00
H2       0.99909    0.41528    0.25391   1.00
H2       1.23659    0.32468    0.33855   1.00
H2       1.11684    0.43417    0.26587   1.00
H2       1.16367    0.27096    0.32418   1.00
H2       1.08708    0.42138    0.29103   1.00
H2       1.18595    0.35674    0.32837   1.00
H2       1.12027    0.37153    0.28101   1.00
H2       1.14809    0.33653    0.38477   1.00
H2       0.97595    0.27371    0.24377   1.00
H2       1.22787    0.35886    0.37401   1.00
H2       1.05058    0.35141    0.23830   1.00
H2       1.18143    0.39677    0.36488   1.00
H2       1.05621    0.28707    0.25171   1.00
C4       0.82869    0.68661    0.85074   1.00
C4       0.80178    0.63226    0.83631   1.00
C3       0.79616    0.72510    0.85519   1.00
C3       0.73701    0.60794    0.82691   1.00
C3       0.89050    0.70391    0.86125   1.00
C3       0.84037    0.60034    0.83090   1.00
C2       0.88125    0.79433    0.88065   1.00
C2       0.74877    0.52460    0.80637   1.00
C3       0.82134    0.77711    0.86975   1.00
C3       0.71136    0.55600    0.81232   1.00
C3       0.91425    0.75696    0.87605   1.00
C3       0.81259    0.54787    0.81590   1.00
H1       0.75330    0.71725    0.84786   1.00
H1       0.70574    0.62659    0.83046   1.00
C5       0.92708    0.66889    0.85681   1.00
C5       0.90462    0.62067    0.84047   1.00
H1       0.79535    0.80277    0.87231   1.00
H1       0.66441    0.54095    0.80605   1.00
H1       0.95776    0.77041    0.88394   1.00
H1       0.83873    0.52428    0.81155   1.00
C6       0.98832    0.68269    0.86954   1.00
C6       0.94817    0.59161    0.83307   1.00
H2       0.97655    0.68446    0.88548   1.00
H2       0.94833    0.59153    0.81654   1.00
H2       0.99723    0.63977    0.86936   1.00
H2       1.00183    0.62542    0.83643   1.00
C6       1.05537    0.74869    0.86298   1.00
C6       0.92569    0.51912    0.84190   1.00
H2       1.04446    0.78991    0.86025   1.00
H2       0.87016    0.48758    0.84125   1.00
C6       1.11797    0.77635    0.87766   1.00
C6       0.95669    0.47783    0.83198   1.00
H2       1.07074    0.73865    0.84826   1.00
H2       0.93829    0.52509    0.85804   1.00
C6       1.10411    0.80220    0.89791   1.00
C6       0.93213    0.45757    0.80978   1.00
C6       1.13795    0.72151    0.88225   1.00
C6       1.03566    0.51826    0.83243   1.00
C6       1.17985    0.83771    0.86733   1.00
C6       0.93234    0.41100    0.84422   1.00
H2       1.08878    0.84022    0.89518   1.00
H2       0.87651    0.42989    0.80890   1.00
H2       1.06382    0.76071    0.90659   1.00
H2       0.95107    0.50218    0.80001   1.00
H2       1.14957    0.82567    0.90745   1.00
H2       0.95015    0.42486    0.80346   1.00
H2       1.18449    0.74270    0.89130   1.00
H2       1.05667    0.48723    0.82681   1.00
H2       1.09792    0.67914    0.89077   1.00
H2       1.05563    0.56355    0.82288   1.00
H2       1.14660    0.70141    0.86822   1.00
H2       1.05428    0.53439    0.84784   1.00
H2       1.16865    0.87832    0.86395   1.00
H2       0.87677    0.38012    0.84420   1.00
H2       1.22483    0.85914    0.87708   1.00
H2       0.95235    0.38011    0.83777   1.00
H2       1.19304    0.82237    0.85312   1.00
H2       0.94932    0.42195    0.85996   1.00
C4       0.30393    0.13435    0.84780   1.00
C4       0.35704    0.15752    0.83301   1.00
C3       0.24421    0.13928    0.84485   1.00
C3       0.35098    0.18054    0.81342   1.00
C3       0.30996    0.10508    0.86636   1.00
C3       0.41889    0.15793    0.83771   1.00
C2       0.19497    0.08447    0.87727   1.00
C2       0.46570    0.20752    0.80343   1.00
C3       0.19117    0.11484    0.85907   1.00
C3       0.40370    0.20512    0.79909   1.00
C3       0.25463    0.08045    0.88039   1.00
C3       0.47150    0.18372    0.82274   1.00
H1       0.23731    0.16145    0.83235   1.00
H1       0.30776    0.17968    0.80875   1.00
C5       0.37015    0.10134    0.87056   1.00
C5       0.42687    0.13270    0.85687   1.00
H1       0.14932    0.11967    0.85600   1.00
H1       0.39625    0.22125    0.78526   1.00
H1       0.25683    0.05890    0.89369   1.00
H1       0.51639    0.18526    0.82558   1.00
C6       0.37275    0.06376    0.88923   1.00
C6       0.49512    0.14017    0.86247   1.00
H2       0.32450    0.01615    0.89069   1.00
H2       0.53551    0.19112    0.85832   1.00
H2       0.40853    0.04540    0.88737   1.00
H2       0.50163    0.14056    0.87881   1.00
C6       0.39101    0.10763    0.90906   1.00
C6       0.50699    0.08350    0.85296   1.00
H2       0.36205    0.13437    0.90956   1.00
H2       0.49103    0.07585    0.83707   1.00
C6       0.38041    0.06985    0.92979   1.00
C6       0.58087    0.09438    0.85391   1.00
H2       0.44442    0.14770    0.90800   1.00
H2       0.47249    0.03539    0.86050   1.00
C6       0.30389    0.01937    0.93403   1.00
C6       0.63142    0.15590    0.84077   1.00
C6       0.42044    0.03093    0.93064   1.00
C6       0.60775    0.10486    0.87599   1.00
C6       0.40735    0.12370    0.94706   1.00
C6       0.57930    0.02974    0.84534   1.00
H2       0.27402    0.04507    0.93321   1.00
H2       0.61332    0.15058    0.82516   1.00
H2       0.28263    -0.02238   0.92314   1.00
H2       0.63824    0.20378    0.84671   1.00
H2       0.29663    -0.00316   0.94910   1.00
H2       0.68160    0.16018    0.84041   1.00
H2       0.41667    0.00887    0.94563   1.00
H2       0.65718    0.10751    0.87664   1.00
H2       0.40034    -0.01071   0.91969   1.00
H2       0.61428    0.15227    0.88228   1.00
H2       0.47427    0.06504    0.92728   1.00
H2       0.57235    0.06292    0.88566   1.00
H2       0.38020    0.15222    0.94727   1.00
H2       0.56132    0.02041    0.82966   1.00
H2       0.40063    0.09970    0.96189   1.00
H2       0.62996    0.03507    0.84556   1.00
H2       0.46158    0.16009    0.94514   1.00
H2       0.54547    -0.01532   0.85425   1.00
C4       0.86514    0.16850    0.84762   1.00
C4       0.84215    0.19834    0.83274   1.00
C3       0.85221    0.10029    0.84601   1.00
C3       0.81100    0.16473    0.81422   1.00
C3       0.90249    0.20759    0.86488   1.00
C3       0.85030    0.26433    0.83624   1.00
C2       0.91450    0.10920    0.87718   1.00
C2       0.79260    0.25718    0.80308   1.00
C3       0.87636    0.07154    0.86027   1.00
C3       0.78664    0.19299    0.79987   1.00
C3       0.92652    0.17655    0.87899   1.00
C3       0.82445    0.29116    0.82129   1.00
H1       0.82416    0.06870    0.83453   1.00
H1       0.80546    0.11874    0.81037   1.00
C5       0.91464    0.27555    0.86776   1.00
C5       0.88383    0.30188    0.85421   1.00
H1       0.86553    0.02217    0.85820   1.00
H1       0.76442    0.16604    0.78685   1.00
H1       0.95366    0.20287    0.89138   1.00
H1       0.82887    0.33772    0.82331   1.00
C6       0.96034    0.31880    0.88489   1.00
C6       0.88562    0.36830    0.85875   1.00
H2       1.00518    0.31285    0.88553   1.00
H2       0.83551    0.36209    0.85571   1.00
H2       0.98306    0.37293    0.88169   1.00
H2       0.89124    0.37963    0.87488   1.00
C6       0.92290    0.30305    0.90588   1.00
C6       0.94325    0.43069    0.84698   1.00
H2       0.89174    0.24788    0.90791   1.00
H2       0.94431    0.41633    0.83121   1.00
C6       0.96797    0.33322    0.92530   1.00
C6       0.94060    0.49847    0.84691   1.00
H2       0.88667    0.32154    0.90526   1.00
H2       0.99215    0.44147    0.85338   1.00
C6       1.01349    0.30108    0.92914   1.00
C6       0.87767    0.49042    0.83513   1.00
C6       1.01358    0.41175    0.92395   1.00
C6       0.93982    0.52350    0.86872   1.00
C6       0.92022    0.31653    0.94393   1.00
C6       1.00535    0.55444    0.83604   1.00
H2       0.98289    0.24553    0.92984   1.00
H2       0.87612    0.47172    0.81976   1.00
H2       1.05127    0.31437    0.91719   1.00
H2       0.83021    0.45477    0.84266   1.00
H2       1.04113    0.31889    0.94344   1.00
H2       0.87879    0.53904    0.83396   1.00
H2       1.04111    0.43277    0.93812   1.00
H2       0.94290    0.57317    0.86852   1.00
H2       1.05136    0.42615    0.91192   1.00
H2       0.89295    0.48811    0.87660   1.00
H2       0.98290    0.43556    0.92083   1.00
H2       0.98285    0.52822    0.87748   1.00
H2       0.88731    0.26152    0.94570   1.00
H2       1.00801    0.53958    0.82046   1.00
H2       0.94940    0.33622    0.95792   1.00
H2       1.00562    0.60276    0.83549   1.00
H2       0.88767    0.33907    0.94231   1.00
H2       1.05157    0.56347    0.84390   1.00
C4       0.02013    0.50085    0.31602   1.00
C4       -0.03307   0.47547    0.33083   1.00
C3       0.02672    0.45757    0.30162   1.00
C3       -0.08737   0.40651    0.33092   1.00
C3       0.06914    0.57207    0.31539   1.00
C3       -0.03282   0.52006    0.34623   1.00
C2       0.12570    0.55257    0.28544   1.00
C2       -0.13885   0.42323    0.36135   1.00
C3       0.07763    0.48256    0.28672   1.00
C3       -0.13852   0.38098    0.34575   1.00
C3       0.11997    0.59553    0.29991   1.00
C3       -0.08563   0.49196    0.36112   1.00
H1       -0.00482   0.40616    0.30155   1.00
H1       -0.09219   0.37241    0.32009   1.00
C5       0.06684    0.61774    0.33003   1.00
C5       0.01892    0.59068    0.34642   1.00
H1       0.07947    0.44873    0.27672   1.00
H1       -0.17612   0.33069    0.34502   1.00
H1       0.15542    0.64588    0.29888   1.00
H1       -0.08693   0.52194    0.37239   1.00
C6       0.11441    0.69382    0.32786   1.00
C6       0.02275    0.63549    0.36400   1.00
H2       0.11575    0.70810    0.31202   1.00
H2       0.01571    0.60781    0.37814   1.00
H2       0.09393    0.72280    0.33516   1.00
H2       0.07391    0.67867    0.36591   1.00
C6       0.18776    0.71832    0.33634   1.00
C6       -0.02875   0.66240    0.36208   1.00
H2       0.20488    0.68324    0.33141   1.00
H2       -0.07845   0.62084    0.35724   1.00
C6       0.24510    0.79244    0.33093   1.00
C6       -0.04018   0.69624    0.38126   1.00
H2       0.18405    0.71361    0.35284   1.00
H2       -0.01132   0.69937    0.34969   1.00
C6       0.26135    0.80047    0.30790   1.00
C6       -0.07527   0.64391    0.39864   1.00
C6       0.22576    0.84619    0.33761   1.00
C6       0.02769    0.75663    0.38914   1.00
C6       0.31123    0.80763    0.34234   1.00
C6       -0.08790   0.72435    0.37538   1.00
H2       0.27412    0.76248    0.30263   1.00
H2       -0.12284   0.60006    0.39347   1.00
H2       0.21822    0.79460    0.29901   1.00
H2       -0.04261   0.62514    0.40439   1.00
H2       0.30451    0.85079    0.30449   1.00
H2       -0.08729   0.66680    0.41139   1.00
H2       0.26797    0.89786    0.33510   1.00
H2       0.01861    0.78288    0.40159   1.00
H2       0.18220    0.84073    0.32901   1.00
H2       0.06142    0.73895    0.39479   1.00
H2       0.21269    0.84072    0.35369   1.00
H2       0.05414    0.79356    0.37707   1.00
H2       0.32755    0.77145    0.33799   1.00
H2       -0.13696   0.68351    0.36990   1.00
H2       0.35301    0.85881    0.33893   1.00
H2       -0.09780   0.74813    0.38834   1.00
H2       0.30341    0.80413    0.35873   1.00
H2       -0.06528   0.76264    0.36343   1.00
C4       0.48138    0.97951    0.31614   1.00
C4       0.50911    1.03246    0.33102   1.00
C3       0.43779    0.97772    0.30027   1.00
C3       0.50113    1.09092    0.32985   1.00
C3       0.49720    0.92582    0.31695   1.00
C3       0.54651    1.02768    0.34781   1.00
C2       0.42795    0.87427    0.28546   1.00
C2       0.56231    1.13796    0.36163   1.00
C3       0.41211    0.92696    0.28532   1.00
C3       0.52656    1.14195    0.34472   1.00
C3       0.47031    0.87529    0.30137   1.00
C3       0.57126    1.08056    0.36268   1.00
H1       0.42253    1.01285    0.29909   1.00
H1       0.47711    1.09895    0.31804   1.00
C5       0.53846    0.92331    0.33305   1.00
C5       0.55868    0.97148    0.34936   1.00
H1       0.38116    0.92869    0.27423   1.00
H1       0.51886    1.18269    0.34303   1.00
H1       0.48081    0.83656    0.30134   1.00
H1       0.59768    1.07872    0.37490   1.00
C6       0.56076    0.87045    0.33251   1.00
C6       0.59193    0.96330    0.36826   1.00
H2       0.57711    0.86759    0.31718   1.00
H2       0.56942    0.97294    0.38156   1.00
H2       0.60739    0.88680    0.34109   1.00
H2       0.57845    0.91052    0.37064   1.00
C6       0.50474    0.79874    0.34041   1.00
C6       0.67157    1.00906    0.36817   1.00
H2       0.45525    0.78622    0.33404   1.00
H2       0.68585    1.06028    0.36290   1.00
C6       0.51587    0.73685    0.33640   1.00
C6       0.71004    1.01645    0.38858   1.00
H2       0.49967    0.80285    0.35675   1.00
H2       0.69146    0.98867    0.35672   1.00
C6       0.51273    0.72051    0.31344   1.00
C6       0.69283    1.05515    0.40481   1.00
C6       0.58473    0.74952    0.34516   1.00
C6       0.69363    0.94615    0.39715   1.00
C6       0.45785    0.67294    0.34704   1.00
C6       0.78795    1.05850    0.38451   1.00
H2       0.46514    0.71239    0.30672   1.00
H2       0.70281    1.10459    0.39910   1.00
H2       0.55476    0.76177    0.30518   1.00
H2       0.63947    1.02634    0.40932   1.00
H2       0.51580    0.67451    0.31089   1.00
H2       0.72340    1.06419    0.41847   1.00
H2       0.58981    0.70427    0.34357   1.00
H2       0.72436    0.95206    0.41057   1.00
H2       0.62752    0.79114    0.33722   1.00
H2       0.64021    0.91621    0.40158   1.00
H2       0.58886    0.76254    0.36122   1.00
H2       0.70395    0.91725    0.38586   1.00
H2       0.40801    0.66129    0.34123   1.00
H2       0.80241    1.10903    0.37862   1.00
H2       0.46316    0.62814    0.34455   1.00
H2       0.81709    1.06545    0.39838   1.00
H2       0.45825    0.68080    0.36338   1.00
H2       0.80354    1.03307    0.37345   1.00
C4       0.49818    0.51865    0.31614   1.00
C4       0.52340    0.49090    0.33102   1.00
C3       0.54004    0.56248    0.30032   1.00
C3       0.58996    0.49915    0.32989   1.00
C3       0.42859    0.50257    0.31689   1.00
C3       0.48112    0.45324    0.34775   1.00
C2       0.44638    0.57209    0.28546   1.00
C2       0.57570    0.43770    0.36162   1.00
C3       0.51497    0.58817    0.28537   1.00
C3       0.61555    0.47371    0.34475   1.00
C3       0.40495    0.52948    0.30131   1.00
C3       0.50924    0.42849    0.36262   1.00
H1       0.59050    0.57793    0.29918   1.00
H1       0.62210    0.52338    0.31812   1.00
C5       0.38472    0.46104    0.33294   1.00
C5       0.41264    0.44080    0.34926   1.00
H1       0.54771    0.61931    0.27432   1.00
H1       0.66408    0.48161    0.34310   1.00
H1       0.35568    0.51881    0.30125   1.00
H1       0.48091    0.40188    0.37481   1.00
C6       0.30952    0.43850    0.33234   1.00
C6       0.37107    0.40725    0.36811   1.00
H2       0.29048    0.42227    0.31699   1.00
H2       0.40305    0.42970    0.38144   1.00
H2       0.27927    0.39175    0.34088   1.00
H2       0.33161    0.42052    0.37047   1.00
C6       0.29349    0.49426    0.34026   1.00
C6       0.33744    0.32764    0.36795   1.00
H2       0.33040    0.54387    0.33395   1.00
H2       0.37456    0.31359    0.36269   1.00
C6       0.22040    0.48290    0.33620   1.00
C6       0.30623    0.28890    0.38831   1.00
H2       0.30249    0.49918    0.35662   1.00
H2       0.29727    0.30775    0.35646   1.00
C6       0.20741    0.48623    0.31324   1.00
C6       0.36202    0.30613    0.40458   1.00
C6       0.16428    0.41386    0.34489   1.00
C6       0.25209    0.30498    0.39686   1.00
C6       0.21416    0.54067    0.34688   1.00
C6       0.27066    0.21104    0.38417   1.00
H2       0.24684    0.53395    0.30657   1.00
H2       0.40165    0.29638    0.39889   1.00
H2       0.20688    0.44437    0.30495   1.00
H2       0.38635    0.35942    0.40915   1.00
H2       0.15827    0.48300    0.31066   1.00
H2       0.34043    0.27538    0.41821   1.00
H2       0.11390    0.40862    0.34327   1.00
H2       0.22720    0.27407    0.41024   1.00
H2       0.16337    0.37124    0.33692   1.00
H2       0.27536    0.35834    0.40133   1.00
H2       0.17305    0.40961    0.36095   1.00
H2       0.21294    0.29464    0.38554   1.00
H2       0.25229    0.59063    0.34113   1.00
H2       0.30691    0.19682    0.37829   1.00
H2       0.16400    0.53520    0.34436   1.00
H2       0.24839    0.18173    0.39800   1.00
H2       0.22147    0.54012    0.36322   1.00
H2       0.22973    0.19544    0.37308   1.00
C4       0.16368    0.31234    0.14965   1.00
C4       0.19256    0.36696    0.16398   1.00
C3       0.09403    0.25975    0.15044   1.00
C3       0.15234    0.37680    0.17875   1.00
C3       0.20532    0.30931    0.13384   1.00
C3       0.26430    0.41411    0.16374   1.00
C2       0.10438    0.20368    0.12009   1.00
C2       0.25136    0.47542    0.19362   1.00
C3       0.06508    0.20722    0.13607   1.00
C3       0.18076    0.42912    0.19320   1.00
C3       0.17378    0.25518    0.11944   1.00
C3       0.29129    0.46647    0.17878   1.00
H1       0.06187    0.25726    0.16160   1.00
H1       0.10078    0.34672    0.17944   1.00
C5       0.27648    0.35919    0.13277   1.00
C5       0.30700    0.40853    0.14869   1.00
H1       0.01446    0.17099    0.13743   1.00
H1       0.14902    0.43331    0.20350   1.00
H1       0.20161    0.25157    0.10790   1.00
H1       0.34212    0.50067    0.17919   1.00
C6       0.31819    0.35960    0.11476   1.00
C6       0.38363    0.45416    0.14994   1.00
H2       0.28896    0.35217    0.10092   1.00
H2       0.39975    0.45649    0.16564   1.00
H2       0.36222    0.40982    0.11223   1.00
H2       0.41025    0.43143    0.14247   1.00
C6       0.34276    0.30624    0.11664   1.00
C6       0.40939    0.52711    0.14094   1.00
H2       0.30076    0.25772    0.12207   1.00
H2       0.37636    0.54643    0.14613   1.00
C6       0.37292    0.29138    0.09720   1.00
C6       0.48492    0.58309    0.14541   1.00
H2       0.38127    0.32371    0.12860   1.00
H2       0.40247    0.52192    0.12451   1.00
C6       0.31803    0.25604    0.08048   1.00
C6       0.49644    0.60155    0.16828   1.00
C6       0.43368    0.35736    0.08848   1.00
C6       0.53591    0.56059    0.13831   1.00
C6       0.39934    0.24219    0.10302   1.00
C6       0.50089    0.64877    0.13360   1.00
H2       0.27391    0.20982    0.08625   1.00
H2       0.46044    0.61660    0.17385   1.00
H2       0.30018    0.28951    0.07477   1.00
H2       0.49016    0.55870    0.17740   1.00
H2       0.33830    0.24164    0.06757   1.00
H2       0.54785    0.64384    0.17104   1.00
H2       0.45739    0.34585    0.07583   1.00
H2       0.58848    0.60178    0.14016   1.00
H2       0.41696    0.39189    0.08287   1.00
H2       0.52998    0.51725    0.14713   1.00
H2       0.47245    0.38400    0.10009   1.00
H2       0.52793    0.54593    0.12235   1.00
H2       0.35815    0.19436    0.10908   1.00
H2       0.46668    0.66726    0.13822   1.00
H2       0.42054    0.22990    0.08988   1.00
H2       0.55308    0.68962    0.13635   1.00
H2       0.43929    0.26487    0.11450   1.00
H2       0.49501    0.63935    0.11729   1.00
C4       0.69596    0.86573    0.15216   1.00
C4       0.64500    0.84111    0.16765   1.00
C3       0.69343    0.90255    0.13498   1.00
C3       0.59204    0.85768    0.16815   1.00
C3       0.75190    0.85342    0.15365   1.00
C3       0.64633    0.79832    0.18338   1.00
C2       0.80073    0.91842    0.12133   1.00
C2       0.53998    0.78866    0.19840   1.00
C3       0.74431    0.92844    0.12007   1.00
C3       0.54088    0.83205    0.18298   1.00
C3       0.80286    0.88098    0.13820   1.00
C3       0.59307    0.77297    0.19814   1.00
H1       0.65416    0.91136    0.13254   1.00
H1       0.58903    0.88955    0.15787   1.00
C5       0.75573    0.81422    0.17016   1.00
C5       0.70000    0.78220    0.18417   1.00
H1       0.73965    0.95481    0.10809   1.00
H1       0.50395    0.84570    0.18245   1.00
H1       0.84364    0.87371    0.13881   1.00
H1       0.59201    0.74203    0.20948   1.00
C6       0.81873    0.80779    0.17271   1.00
C6       0.69677    0.73112    0.19959   1.00
H2       0.86387    0.85749    0.17024   1.00
H2       0.64501    0.68779    0.20007   1.00
H2       0.82565    0.79752    0.18837   1.00
H2       0.72553    0.70706    0.19466   1.00
C6       0.81871    0.75170    0.15877   1.00
C6       0.72222    0.76275    0.22118   1.00
H2       0.80204    0.75557    0.14351   1.00
H2       0.70099    0.79535    0.22504   1.00
C6       0.88710    0.75071    0.15673   1.00
C6       0.70721    0.71238    0.23927   1.00
H2       0.77958    0.70204    0.16446   1.00
H2       0.77729    0.79706    0.22029   1.00
C6       0.94270    0.81523    0.14573   1.00
C6       0.62970    0.66894    0.24368   1.00
C6       0.91446    0.74442    0.17768   1.00
C6       0.73629    0.66437    0.23529   1.00
C6       0.87363    0.68782    0.14383   1.00
C6       0.74208    0.75468    0.25861   1.00
H2       0.92454    0.82174    0.13101   1.00
H2       0.60740    0.70136    0.24623   1.00
H2       0.95773    0.86115    0.15460   1.00
H2       0.60249    0.63474    0.23115   1.00
H2       0.98853    0.81188    0.14313   1.00
H2       0.62008    0.63746    0.25717   1.00
H2       0.95940    0.73887    0.17600   1.00
H2       0.72988    0.63285    0.24856   1.00
H2       0.92918    0.78968    0.18689   1.00
H2       0.71013    0.63012    0.22264   1.00
H2       0.87576    0.70016    0.18593   1.00
H2       0.79054    0.69366    0.23172   1.00
H2       0.85485    0.69011    0.12876   1.00
H2       0.72279    0.78902    0.26223   1.00
H2       0.92012    0.68515    0.14186   1.00
H2       0.73267    0.72168    0.27173   1.00
H2       0.83573    0.64048    0.15103   1.00
H2       0.79719    0.78547    0.25658   1.00
C4       0.13503    0.83183    0.15243   1.00
C4       0.16019    0.80594    0.16790   1.00
C3       0.08721    0.78894    0.13752   1.00
C3       0.13404    0.73479    0.17084   1.00
C3       0.15810    0.90322    0.15159   1.00
C3       0.21345    0.85223    0.18108   1.00
C2       0.08158    0.88363    0.12175   1.00
C2       0.21331    0.75362    0.19852   1.00
C3       0.06097    0.81387    0.12270   1.00
C3       0.15993    0.70931    0.18561   1.00
C3       0.12984    0.92650    0.13632   1.00
C3       0.23866    0.82422    0.19585   1.00
H1       0.07017    0.73807    0.13675   1.00
H1       0.09474    0.69877    0.16250   1.00
C5       0.20834    0.94932    0.16566   1.00
C5       0.23986    0.92430    0.17941   1.00
H1       0.02641    0.78025    0.11243   1.00
H1       0.13905    0.65745    0.18691   1.00
H1       0.14462    0.97683    0.13533   1.00
H1       0.27682    0.85552    0.20541   1.00
C6       0.22685    1.02348    0.16598   1.00
C6       0.30102    0.97296    0.19198   1.00
H2       0.18036    1.02641    0.16490   1.00
H2       0.33867    0.95641    0.19163   1.00
H2       0.24646    1.04676    0.18069   1.00
H2       0.32896    1.02300    0.18496   1.00
C6       0.27970    1.06741    0.14919   1.00
C6       0.28204    0.98127    0.21425   1.00
H2       0.26547    1.03959    0.13482   1.00
H2       0.24577    0.93122    0.22045   1.00
C6       0.29112    1.14051    0.14511   1.00
C6       0.34178    1.01787    0.22984   1.00
H2       0.32869    1.07225    0.15327   1.00
H2       0.25431    1.00920    0.21361   1.00
C6       0.22651    1.13777    0.13609   1.00
C6       0.37719    0.97559    0.23413   1.00
C6       0.31244    1.18437    0.16465   1.00
C6       0.39569    1.08999    0.22246   1.00
C6       0.34946    1.17658    0.12936   1.00
C6       0.31197    1.02579    0.25020   1.00
H2       0.20948    1.10622    0.12244   1.00
H2       0.34028    0.92398    0.23906   1.00
H2       0.18451    1.11675    0.14689   1.00
H2       0.40295    0.97157    0.22071   1.00
H2       0.23642    1.18862    0.13200   1.00
H2       0.41553    0.99914    0.24603   1.00
H2       0.32498    1.23663    0.16137   1.00
H2       0.43449    1.11690    0.23405   1.00
H2       0.27125    1.16376    0.17576   1.00
H2       0.42162    1.08708    0.20889   1.00
H2       0.35700    1.18596    0.17155   1.00
H2       0.37185    1.12035    0.21892   1.00
H2       0.33664    1.14798    0.11516   1.00
H2       0.27403    0.97614    0.25619   1.00
H2       0.35906    1.22779    0.12591   1.00
H2       0.35178    1.05075    0.26165   1.00
H2       0.39693    1.18132    0.13503   1.00
H2       0.28744    1.05641    0.24824   1.00
C4       0.97996    0.49949    0.68401   1.00
C4       1.03436    0.52896    0.66961   1.00
C3       0.93975    0.42772    0.68703   1.00
C3       1.05696    0.48943    0.65879   1.00
C3       0.96440    0.54267    0.69595   1.00
C3       1.06810    0.60065    0.66571   1.00
C2       0.87213    0.44000    0.71383   1.00
C2       1.14212    0.58795    0.63976   1.00
C3       0.88769    0.39878    0.70154   1.00
C3       1.10895    0.51784    0.64424   1.00
C3       0.91121    0.51118    0.71065   1.00
C3       1.12055    0.62753    0.65069   1.00
H1       0.94634    0.39374    0.67866   1.00
H1       1.03696    0.43861    0.66122   1.00
C5       1.00121    0.61512    0.69300   1.00
C5       1.04953    0.64354    0.67674   1.00
H1       0.86073    0.34666    0.70304   1.00
H1       1.12270    0.48653    0.63691   1.00
H1       0.89896    0.54021    0.71952   1.00
H1       1.14541    0.67817    0.64740   1.00
C6       0.98917    0.66063    0.70719   1.00
C6       1.08053    0.71791    0.67095   1.00
H2       0.98692    0.64322    0.72273   1.00
H2       1.08068    0.72202    0.65448   1.00
H2       1.03308    0.71182    0.70783   1.00
H2       1.04794    0.73829    0.67532   1.00
C6       0.92435    0.66532    0.70160   1.00
C6       1.15342    0.76420    0.68011   1.00
H2       0.88212    0.61446    0.69804   1.00
H2       1.18363    0.73906    0.67835   1.00
C6       0.89827    0.69815    0.71759   1.00
C6       1.19644    0.83845    0.67162   1.00
H2       0.93513    0.69420    0.68749   1.00
H2       1.14770    0.76731    0.69646   1.00
C6       0.87146    0.65398    0.73704   1.00
C6       1.21630    0.83867    0.64908   1.00
C6       0.95464    0.77113    0.72344   1.00
C6       1.15797    0.87867    0.67369   1.00
C6       0.83800    0.70303    0.70817   1.00
C6       1.26350    0.87650    0.68404   1.00
H2       0.83233    0.60178    0.73339   1.00
H2       1.24259    0.80971    0.64705   1.00
H2       0.91225    0.65185    0.74515   1.00
H2       1.17164    0.81637    0.63927   1.00
H2       0.84908    0.67476    0.74749   1.00
H2       1.25016    0.89051    0.64372   1.00
H2       0.93461    0.79535    0.73346   1.00
H2       1.19023    0.93172    0.66908   1.00
H2       0.99633    0.77015    0.73140   1.00
H2       1.11266    0.85670    0.66412   1.00
H2       0.97541    0.80291    0.70996   1.00
H2       1.14214    0.87808    0.68935   1.00
H2       0.79639    0.65263    0.70395   1.00
H2       1.29303    0.85052    0.68291   1.00
H2       0.81769    0.72528    0.71884   1.00
H2       1.29557    0.92860    0.67858   1.00
H2       0.85409    0.73478    0.69457   1.00
H2       1.25287    0.87926    0.70006   1.00
C4       0.51883    0.02036    0.68390   1.00
C4       0.49357    -0.03415   0.66953   1.00
C3       0.49265    0.06583    0.68530   1.00
C3       0.43578    -0.05142   0.65706   1.00
C3       0.57238    0.03062    0.69749   1.00
C3       0.52668    -0.07350   0.66738   1.00
C2       0.56755    0.12855    0.71361   1.00
C2       0.44447    -0.14220   0.63978   1.00
C3       0.51594    0.11809    0.69975   1.00
C3       0.41209    -0.10354   0.64255   1.00
C3       0.59440    0.08420    0.71206   1.00
C3       0.50119    -0.12592   0.65235   1.00
H1       0.45614    0.06311    0.67574   1.00
H1       0.40831    -0.02721   0.65818   1.00
C5       0.60273    -0.01171   0.69624   1.00
C5       0.58334    -0.06039   0.68010   1.00
H1       0.49477    0.14898    0.70003   1.00
H1       0.37031    -0.11330   0.63397   1.00
H1       0.63203    0.09279    0.72206   1.00
H1       0.52366    -0.15469   0.65027   1.00
C6       0.65416    -0.00501   0.71207   1.00
C6       0.62235    -0.09746   0.67620   1.00
H2       0.63591    -0.00095   0.72701   1.00
H2       0.63058    -0.09815   0.65993   1.00
H2       0.65614    -0.05179   0.71358   1.00
H2       0.67437    -0.06881   0.68181   1.00
C6       0.72788    0.05563    0.70785   1.00
C6       0.58710    -0.17101   0.68549   1.00
H2       0.72526    0.10077    0.70341   1.00
H2       0.53238    -0.19690   0.68237   1.00
C6       0.78159    0.07692    0.72532   1.00
C6       0.61417    -0.21942   0.67868   1.00
H2       0.74760    0.04234    0.69455   1.00
H2       0.59151    -0.16583   0.70198   1.00
C6       0.76282    0.10697    0.74373   1.00
C6       0.59979    -0.23835   0.65590   1.00
C6       0.78958    0.01614    0.73250   1.00
C6       0.69158    -0.18732   0.68277   1.00
C6       0.85178    0.13321    0.71720   1.00
C6       0.57637    -0.28659   0.69107   1.00
H2       0.75573    0.14933    0.73910   1.00
H2       0.54565    -0.26014   0.65245   1.00
H2       0.71594    0.06876    0.75098   1.00
H2       0.62823    -0.19394   0.64622   1.00
H2       0.80287    0.12599    0.75522   1.00
H2       0.61453    -0.27576   0.65164   1.00
H2       0.83052    0.03257    0.74363   1.00
H2       0.70894    -0.22333   0.67932   1.00
H2       0.74288    -0.02304   0.73963   1.00
H2       0.72096    -0.14233   0.67335   1.00
H2       0.80140    -0.00687   0.71974   1.00
H2       0.70329    -0.17221   0.69863   1.00
H2       0.84913    0.17772    0.71211   1.00
H2       0.52140    -0.31176   0.68855   1.00
H2       0.89100    0.15013    0.72892   1.00
H2       0.59324    -0.32235   0.68675   1.00
H2       0.86851    0.11462    0.70441   1.00
H2       0.58567    -0.27675   0.70729   1.00
C4       0.50149    0.48115    0.68390   1.00
C4       0.47222    0.50639    0.66954   1.00
C3       0.57316    0.50754    0.68536   1.00
C3       0.51273    0.56437    0.65712   1.00
C3       0.45819    0.42739    0.69743   1.00
C3       0.39977    0.47308    0.66732   1.00
C2       0.56095    0.43244    0.71362   1.00
C2       0.41327    0.55548    0.63978   1.00
C3       0.60213    0.48426    0.69982   1.00
C3       0.48430    0.58805    0.64262   1.00
C3       0.48974    0.40538    0.71200   1.00
C3       0.37285    0.49858    0.65229   1.00
H1       0.60696    0.54421    0.67584   1.00
H1       0.56438    0.59197    0.65830   1.00
C5       0.38549    0.39682    0.69612   1.00
C5       0.35623    0.41623    0.67998   1.00
H1       0.65420    0.50559    0.70014   1.00
H1       0.51630    0.62996    0.63408   1.00
H1       0.46068    0.36760    0.72197   1.00
H1       0.32162    0.47597    0.65016   1.00
C6       0.34070    0.34514    0.71189   1.00
C6       0.28020    0.37703    0.67600   1.00
H2       0.36283    0.36328    0.72686   1.00
H2       0.27147    0.36897    0.65973   1.00
H2       0.29185    0.34296    0.71337   1.00
H2       0.25693    0.32497    0.68157   1.00
C6       0.32793    0.27156    0.70762   1.00
C6       0.24159    0.41197    0.68530   1.00
H2       0.37583    0.27442    0.70321   1.00
H2       0.27028    0.46672    0.68223   1.00
C6       0.29548    0.21764    0.72503   1.00
C6       0.16613    0.38473    0.67842   1.00
H2       0.29508    0.25189    0.69428   1.00
H2       0.24220    0.40739    0.70178   1.00
C6       0.34414    0.23637    0.74348   1.00
C6       0.16176    0.39930    0.65564   1.00
C6       0.22654    0.20933    0.73216   1.00
C6       0.12099    0.30724    0.68243   1.00
C6       0.28192    0.14763    0.71686   1.00
C6       0.13642    0.42220    0.69082   1.00
H2       0.39371    0.24370    0.73889   1.00
H2       0.19398    0.45349    0.65225   1.00
H2       0.35256    0.28312    0.75076   1.00
H2       0.17796    0.37108    0.64596   1.00
H2       0.32310    0.19620    0.75493   1.00
H2       0.10961    0.38443    0.65134   1.00
H2       0.20203    0.16825    0.74325   1.00
H2       0.06762    0.28974    0.67895   1.00
H2       0.23381    0.25588    0.73933   1.00
H2       0.13685    0.27808    0.67301   1.00
H2       0.19182    0.19752    0.71937   1.00
H2       0.12428    0.29540    0.69829   1.00
H2       0.32922    0.15051    0.71180   1.00
H2       0.16610    0.47720    0.68836   1.00
H2       0.25962    0.10828    0.72854   1.00
H2       0.08380    0.40519    0.68646   1.00
H2       0.24673    0.13093    0.70403   1.00
H2       0.13683    0.41274    0.70704   1.00
C4       0.50522    0.03087    0.18062   1.00
C4       0.47710    -0.02042   0.16525   1.00
C3       0.56666    0.04735    0.19107   1.00
C3       0.51199    -0.05369   0.15777   1.00
C3       0.47123    0.06753    0.18597   1.00
C3       0.41168    -0.03976   0.15684   1.00
C2       0.56392    0.13688    0.21101   1.00
C2       0.41884    -0.12652   0.13488   1.00
C3       0.59540    0.09894    0.20573   1.00
C3       0.48372    -0.10537   0.14312   1.00
C3       0.50238    0.11995    0.20090   1.00
C3       0.38452    -0.09287   0.14203   1.00
H1       0.59249    0.02201    0.18856   1.00
H1       0.55956    -0.04115   0.16254   1.00
C5       0.40772    0.05126    0.17658   1.00
C5       0.37537    -0.00609   0.16315   1.00
H1       0.63996    0.10853    0.21266   1.00
H1       0.51137    -0.12755   0.13842   1.00
H1       0.47999    0.14745    0.20500   1.00
H1       0.33796    -0.10835   0.13580   1.00
C6       0.37610    0.09521    0.18079   1.00
C6       0.30324    -0.03195   0.15575   1.00
H2       0.41581    0.14870    0.18030   1.00
H2       0.27504    -0.08744   0.15659   1.00
H2       0.34290    0.09263    0.16849   1.00
H2       0.27450    -0.01857   0.16613   1.00
C6       0.33522    0.07690    0.20121   1.00
C6       0.29999    -0.00595   0.13397   1.00
H2       0.36454    0.06963    0.21313   1.00
H2       0.33645    -0.01015   0.12407   1.00
C6       0.31332    0.12808    0.20935   1.00
C6       0.22922    -0.04097   0.12297   1.00
H2       0.28938    0.02714    0.19929   1.00
H2       0.31815    0.04863    0.13503   1.00
C6       0.37589    0.19716    0.21557   1.00
C6       0.20469    -0.11669   0.11792   1.00
C6       0.27051    0.14102    0.19351   1.00
C6       0.17406    -0.03684   0.13579   1.00
C6       0.26862    0.09686    0.22855   1.00
C6       0.23677    -0.00328   0.10263   1.00
H2       0.40779    0.18967    0.22651   1.00
H2       0.24303    -0.12144   0.10915   1.00
H2       0.40745    0.22397    0.20252   1.00
H2       0.19428    -0.14718   0.13162   1.00
H2       0.35998    0.23071    0.22252   1.00
H2       0.15775    -0.13928   0.10903   1.00
H2       0.25142    0.17284    0.19984   1.00
H2       0.12627    -0.05700   0.12740   1.00
H2       0.30106    0.16726    0.18022   1.00
H2       0.16338    -0.06654   0.14969   1.00
H2       0.22689    0.09304    0.18855   1.00
H2       0.19069    0.01584    0.13992   1.00
H2       0.29677    0.08736    0.24032   1.00
H2       0.27472    -0.00530   0.09289   1.00
H2       0.25239    0.13101    0.23489   1.00
H2       0.18865    -0.02622   0.09430   1.00
H2       0.22284    0.04854    0.22504   1.00
H2       0.25268    0.05025    0.10522   1.00
C4       0.97900    0.48198    0.18369   1.00
C4       1.03169    0.50957    0.16872   1.00
C3       0.98207    0.44609    0.20104   1.00
C3       1.09419    0.50952    0.17112   1.00
C3       0.92059    0.49001    0.18145   1.00
C3       1.02242    0.53864    0.15059   1.00
C2       0.87411    0.42906    0.21448   1.00
C2       1.13688    0.56233    0.13803   1.00
C3       0.93147    0.42068    0.21604   1.00
C3       1.14512    0.53475    0.15622   1.00
C3       0.87036    0.46371    0.19712   1.00
C3       1.07537    0.56345    0.13574   1.00
H1       1.02087    0.43646    0.20333   1.00
H1       1.10536    0.49175    0.18387   1.00
C5       0.91327    0.52316    0.16389   1.00
C5       0.96180    0.54274    0.14770   1.00
H1       0.93682    0.39550    0.22823   1.00
H1       1.18892    0.53298    0.15883   1.00
H1       0.82834    0.46884    0.19614   1.00
H1       1.07046    0.58406    0.12259   1.00
C6       0.85496    0.53773    0.16276   1.00
C6       0.94947    0.56690    0.12756   1.00
H2       0.84987    0.55730    0.17736   1.00
H2       0.96240    0.54303    0.11532   1.00
H2       0.86680    0.58044    0.15278   1.00
H2       0.89547    0.54730    0.12485   1.00
C6       0.78606    0.47458    0.15582   1.00
C6       0.98834    0.64652    0.12546   1.00
H2       0.77862    0.42898    0.16377   1.00
H2       1.04056    0.66756    0.13099   1.00
C6       0.71951    0.47874    0.15841   1.00
C6       0.99180    0.67694    0.10388   1.00
H2       0.79115    0.46534    0.13982   1.00
H2       0.96440    0.66609    0.13578   1.00
C6       0.70245    0.48090    0.18110   1.00
C6       1.03475    0.66058    0.08899   1.00
C6       0.72487    0.54164    0.14738   1.00
C6       0.91975    0.65060    0.09483   1.00
C6       0.65910    0.41383    0.14894   1.00
C6       1.02692    0.75572    0.10573   1.00
H2       0.69941    0.43772    0.18939   1.00
H2       1.08561    0.67756    0.09509   1.00
H2       0.74089    0.52749    0.18842   1.00
H2       1.01071    0.60610    0.08600   1.00
H2       0.65359    0.47902    0.18278   1.00
H2       1.04082    0.68592    0.07443   1.00
H2       0.67659    0.54142    0.14805   1.00
H2       0.92250    0.67578    0.08046   1.00
H2       0.76362    0.58888    0.15437   1.00
H2       0.89452    0.59594    0.09191   1.00
H2       0.73826    0.54211    0.13146   1.00
H2       0.88798    0.66020    0.10522   1.00
H2       0.65262    0.36784    0.15636   1.00
H2       1.07840    0.77704    0.11186   1.00
H2       0.61126    0.41415    0.15050   1.00
H2       1.03096    0.77941    0.09099   1.00
H2       0.66750    0.41013    0.13280   1.00
H2       0.99819    0.77056    0.11575   1.00
C4       0.51866    0.49821    0.18387   1.00
C4       0.49092    0.52343    0.16899   1.00
C3       0.56266    0.54012    0.19965   1.00
C3       0.49934    0.59006    0.17009   1.00
C3       0.50242    0.42856    0.18315   1.00
C3       0.45307    0.48107    0.15229   1.00
C2       0.57212    0.44641    0.21454   1.00
C2       0.43770    0.57573    0.13839   1.00
C3       0.58836    0.51505    0.21459   1.00
C3       0.47389    0.61565    0.15522   1.00
C3       0.52934    0.40493    0.19872   1.00
C3       0.42832    0.50920    0.13741   1.00
H1       0.57823    0.59061    0.20076   1.00
H1       0.52370    0.62226    0.18184   1.00
C5       0.46071    0.38463    0.16713   1.00
C5       0.44046    0.41253    0.15081   1.00
H1       0.61962    0.54783    0.22562   1.00
H1       0.48192    0.66423    0.15685   1.00
H1       0.51855    0.35562    0.19881   1.00
H1       0.40158    0.48081    0.12525   1.00
C6       0.43801    0.30940    0.16777   1.00
C6       0.40671    0.37086    0.13200   1.00
H2       0.42186    0.29048    0.18314   1.00
H2       0.42912    0.40273    0.11864   1.00
H2       0.39118    0.27917    0.15927   1.00
H2       0.41984    0.33130    0.12964   1.00
C6       0.49360    0.29314    0.15983   1.00
C6       0.32711    0.33740    0.13220   1.00
H2       0.54328    0.33001    0.16611   1.00
H2       0.31322    0.37464    0.13745   1.00
C6       0.48209    0.22001    0.16393   1.00
C6       0.28820    0.30611    0.11187   1.00
H2       0.49842    0.30203    0.14347   1.00
H2       0.30723    0.29731    0.14371   1.00
C6       0.48554    0.20716    0.18690   1.00
C6       0.30544    0.36182    0.09556   1.00
C6       0.41293    0.16395    0.15530   1.00
C6       0.30405    0.25179    0.10334   1.00
C6       0.53968    0.21354    0.15323   1.00
C6       0.21038    0.27072    0.11606   1.00
H2       0.53335    0.24656    0.19352   1.00
H2       0.29585    0.40157    0.10125   1.00
H2       0.44379    0.20680    0.19520   1.00
H2       0.35869    0.38601    0.09097   1.00
H2       0.48220    0.15798    0.18949   1.00
H2       0.27458    0.34018    0.08196   1.00
H2       0.40757    0.11352    0.15694   1.00
H2       0.27302    0.22686    0.08998   1.00
H2       0.37042    0.16320    0.16329   1.00
H2       0.35737    0.27492    0.09883   1.00
H2       0.40859    0.17262    0.13923   1.00
H2       0.29370    0.21270    0.11468   1.00
H2       0.58972    0.25163    0.15894   1.00
H2       0.19632    0.30711    0.12193   1.00
H2       0.53411    0.16335    0.15577   1.00
H2       0.18095    0.24841    0.10224   1.00
H2       0.53904    0.22074    0.13688   1.00
H2       0.19477    0.22986    0.12717   1.00
C4       0.69767    0.83800    0.65276   1.00
C4       0.64627    0.80966    0.66809   1.00
C3       0.71794    0.90223    0.64351   1.00
C3       0.61674    0.84658    0.67675   1.00
C3       0.73052    0.80137    0.64621   1.00
C3       0.62297    0.74193    0.67526   1.00
C2       0.80394    0.89690    0.62245   1.00
C2       0.53996    0.75122    0.69840   1.00
C3       0.76966    0.93104    0.62889   1.00
C3       0.56497    0.81825    0.69136   1.00
C3       0.78322    0.83267    0.63137   1.00
C3       0.56989    0.71481    0.69008   1.00
H1       0.69540    0.93017    0.64689   1.00
H1       0.63222    0.89568    0.67290   1.00
C5       0.71031    0.73520    0.65435   1.00
C5       0.65278    0.70330    0.66774   1.00
H1       0.78210    0.97766    0.62286   1.00
H1       0.54560    0.84743    0.69695   1.00
H1       0.80808    0.80841    0.62643   1.00
H1       0.55165    0.66667    0.69544   1.00
C6       0.75034    0.70028    0.64891   1.00
C6       0.62272    0.62928    0.67382   1.00
H2       0.80465    0.73739    0.64963   1.00
H2       0.56730    0.60425    0.67303   1.00
H2       0.74546    0.66386    0.66046   1.00
H2       0.63355    0.60067    0.66265   1.00
C6       0.72983    0.66330    0.62784   1.00
C6       0.64747    0.61994    0.69517   1.00
H2       0.72495    0.69633    0.61669   1.00
H2       0.64602    0.65596    0.70591   1.00
C6       0.77752    0.63865    0.61860   1.00
C6       0.60869    0.54729    0.70498   1.00
H2       0.67866    0.61913    0.62934   1.00
H2       0.70130    0.63503    0.69384   1.00
C6       0.84849    0.69952    0.61294   1.00
C6       0.53406    0.52634    0.71040   1.00
C6       0.78689    0.59055    0.63329   1.00
C6       0.60873    0.49254    0.69090   1.00
C6       0.74431    0.59840    0.59882   1.00
C6       0.64547    0.54853    0.72499   1.00
H2       0.84358    0.73506    0.60284   1.00
H2       0.53222    0.56456    0.72007   1.00
H2       0.87652    0.72771    0.62634   1.00
H2       0.50400    0.52037    0.69687   1.00
H2       0.87965    0.68207    0.60524   1.00
H2       0.50894    0.47781    0.71850   1.00
H2       0.81615    0.56982    0.62615   1.00
H2       0.58590    0.44305    0.69845   1.00
H2       0.81430    0.61768    0.64691   1.00
H2       0.57941    0.48626    0.67716   1.00
H2       0.73759    0.54797    0.63785   1.00
H2       0.66063    0.50677    0.68651   1.00
H2       0.73720    0.63035    0.58782   1.00
H2       0.64622    0.58598    0.73558   1.00
H2       0.77603    0.58046    0.59172   1.00
H2       0.61994    0.49892    0.73250   1.00
H2       0.69453    0.55389    0.60189   1.00
H2       0.69812    0.56168    0.72211   1.00
C4       0.13463    0.30358    0.65231   1.00
C4       0.15769    0.35653    0.66716   1.00
C3       0.14441    0.24644    0.65448   1.00
C3       0.18561    0.35253    0.68613   1.00
C3       0.10048    0.30713    0.63451   1.00
C3       0.15295    0.41608    0.66314   1.00
C2       0.08507    0.19480    0.62279   1.00
C2       0.20742    0.46503    0.69678   1.00
C3       0.12014    0.19348    0.64024   1.00
C3       0.21006    0.40519    0.70047   1.00
C3       0.07621    0.25195    0.62042   1.00
C3       0.17877    0.46872    0.67810   1.00
H1       0.17014    0.24149    0.66639   1.00
H1       0.18860    0.31090    0.69033   1.00
C5       0.09166    0.36479    0.63107   1.00
C5       0.12270    0.42177    0.64467   1.00
H1       0.12860    0.15354    0.64273   1.00
H1       0.22986    0.39931    0.71384   1.00
H1       0.05128    0.25240    0.60765   1.00
H1       0.17672    0.51203    0.67573   1.00
C6       0.04915    0.36444    0.61329   1.00
C6       0.12461    0.48796    0.63967   1.00
H2       0.00311    0.31462    0.61234   1.00
H2       0.17515    0.53048    0.64314   1.00
H2       0.02810    0.39764    0.61594   1.00
H2       0.12143    0.49407    0.62342   1.00
C6       0.08931    0.38487    0.59273   1.00
C6       0.06718    0.49554    0.65054   1.00
H2       0.11879    0.35884    0.59133   1.00
H2       0.06344    0.47982    0.66639   1.00
C6       0.04711    0.37178    0.57276   1.00
C6       0.07312    0.56744    0.65017   1.00
H2       0.12715    0.43913    0.59351   1.00
H2       0.01851    0.45885    0.64369   1.00
C6       -0.00047   0.29449    0.56879   1.00
C6       0.13558    0.62059    0.66249   1.00
C6       0.00406    0.40759    0.57321   1.00
C6       0.07783    0.59381    0.62821   1.00
C6       0.09747    0.40129    0.55464   1.00
C6       0.00822    0.56151    0.66013   1.00
H2       0.02826    0.26753    0.56871   1.00
H2       0.13434    0.60297    0.67799   1.00
H2       -0.03995   0.27122    0.58033   1.00
H2       0.18334    0.63044    0.65559   1.00
H2       -0.02608   0.28575    0.55416   1.00
H2       0.13660    0.66922    0.66332   1.00
H2       -0.02131   0.40224    0.55869   1.00
H2       0.07703    0.64160    0.62805   1.00
H2       -0.03540   0.38544    0.58483   1.00
H2       0.12506    0.60335    0.62096   1.00
H2       0.03615    0.46187    0.57641   1.00
H2       0.03517    0.55666    0.61909   1.00
H2       0.12871    0.37713    0.55351   1.00
H2       0.00284    0.54371    0.67578   1.00
H2       0.07033    0.39297    0.54030   1.00
H2       0.01017    0.61067    0.66035   1.00
H2       0.13161    0.45610    0.55636   1.00
H2       -0.03761   0.52566    0.65185   1.00
C4       0.16851    0.86515    0.65238   1.00
C4       0.19835    0.84215    0.66726   1.00
C3       0.10032    0.85226    0.65399   1.00
C3       0.16476    0.81106    0.68578   1.00
C3       0.20757    0.90245    0.63511   1.00
C3       0.26432    0.85024    0.66375   1.00
C2       0.10921    0.91450    0.62282   1.00
C2       0.25719    0.79260    0.69692   1.00
C3       0.07157    0.87642    0.63974   1.00
C3       0.19302    0.78669    0.70014   1.00
C3       0.17654    0.92648    0.62100   1.00
C3       0.29114    0.82439    0.67870   1.00
H1       0.06874    0.82425    0.66548   1.00
H1       0.11880    0.80556    0.68964   1.00
C5       0.27551    0.91454    0.63222   1.00
C5       0.30184    0.88373    0.64577   1.00
H1       0.02221    0.86563    0.64181   1.00
H1       0.16609    0.76451    0.71316   1.00
H1       0.20285    0.95358    0.60860   1.00
H1       0.33768    0.82878    0.67668   1.00
C6       0.31875    0.96019    0.61508   1.00
C6       0.36823    0.88545    0.64123   1.00
H2       0.31284    1.00505    0.61444   1.00
H2       0.36198    0.83534    0.64427   1.00
H2       0.37289    0.98289    0.61827   1.00
H2       0.37953    0.89103    0.62509   1.00
C6       0.30293    0.92270    0.59410   1.00
C6       0.43066    0.94309    0.65298   1.00
H2       0.24775    0.89157    0.59208   1.00
H2       0.41634    0.94418    0.66875   1.00
C6       0.33309    0.96772    0.57467   1.00
C6       0.49841    0.94038    0.65304   1.00
H2       0.32139    0.88644    0.59472   1.00
H2       0.44146    0.99198    0.64657   1.00
C6       0.30098    1.01328    0.57083   1.00
C6       0.49034    0.87746    0.66483   1.00
C6       0.41162    1.01329    0.57600   1.00
C6       0.52339    0.93954    0.63123   1.00
C6       0.31633    0.91993    0.55605   1.00
C6       0.55443    1.00514    0.66389   1.00
H2       0.24543    0.98271    0.57014   1.00
H2       0.47167    0.87596    0.68021   1.00
H2       0.31432    1.05108    0.58277   1.00
H2       0.45465    0.82999    0.65731   1.00
H2       0.31878    1.04089    0.55652   1.00
H2       0.53894    0.87854    0.66600   1.00
H2       0.43263    1.04079    0.56182   1.00
H2       0.57304    0.94258    0.63142   1.00
H2       0.42607    1.05111    0.58802   1.00
H2       0.48795    0.89265    0.62336   1.00
H2       0.43541    0.98259    0.57912   1.00
H2       0.52812    0.98256    0.62246   1.00
H2       0.26131    0.88705    0.55428   1.00
H2       0.53961    1.00783    0.67948   1.00
H2       0.33600    0.94907    0.54205   1.00
H2       0.60273    1.00537    0.66444   1.00
H2       0.33883    0.88735    0.55766   1.00
H2       0.56348    1.05135    0.65603   1.00
