data_IRMOF10_interpen_symm_ligand1cp_symm_d

_audit_creation_method             'generated by an auxiliary program of Tobunporous'

_symmetry_space_group_name_H-M     'P 1'
_symmetry_Int_Tables_number        1
_symmetry_cell_setting             triclinic

_cell_length_a                    22.6523
_cell_length_b                    22.6523
_cell_length_c                    65.9502
_cell_angle_alpha                 90.0000
_cell_angle_beta                  90.0000
_cell_angle_gamma                 120.0000

loop_
_atom_site_label
_atom_site_fract_x
_atom_site_fract_y
_atom_site_fract_z
_atom_site_occupancy
O1       0.00000    0.00000    0.57470   1.00
Zn      0.00000    0.00000    0.54560   1.00
Zn      0.94843    0.04287    0.58357   1.00
Zn      0.09443    0.05157    0.58357   1.00
Zn      0.95713    0.90557    0.58357   1.00
O2       0.93860    0.02610    0.53560   1.00
O2       0.08750    0.06140    0.53560   1.00
O2       0.97390    0.91250    0.53560   1.00
O2       0.91300    0.07160    0.56150   1.00
O2       0.00463    0.12027    0.60077   1.00
O2       0.87413    0.98077    0.60037   1.00
O2       0.15860    0.08700    0.56150   1.00
O2       0.10663    0.12587    0.60037   1.00
O2       0.11563    0.99537    0.60077   1.00
O2       0.92840    0.84140    0.56150   1.00
O2       0.87973    0.88437    0.60077   1.00
O2       0.01923    0.89337    0.60037   1.00
C1       0.91390    0.06020    0.54330   1.00
C1       0.14630    0.08610    0.54330   1.00
C1       0.93980    0.85370    0.54330   1.00
C1       0.06663    0.14397    0.60637   1.00
C1       0.85603    0.92267    0.60637   1.00
C1       0.07733    0.93337    0.60637   1.00
O1       0.00000    0.00000    0.92530   1.00
Zn      0.00000    0.00000    0.95440   1.00
Zn      0.04287    0.94843    0.91643   1.00
Zn      0.05157    0.09443    0.91643   1.00
Zn      0.90557    0.95713    0.91643   1.00
O2       0.02610    0.93860    0.96440   1.00
O2       0.06140    0.08750    0.96440   1.00
O2       0.91250    0.97390    0.96440   1.00
O2       0.07160    0.91300    0.93850   1.00
O2       0.12027    0.00463    0.89923   1.00
O2       0.98077    0.87413    0.89963   1.00
O2       0.08700    0.15860    0.93850   1.00
O2       0.12587    0.10663    0.89963   1.00
O2       0.99537    0.11563    0.89923   1.00
O2       0.84140    0.92840    0.93850   1.00
O2       0.88437    0.87973    0.89923   1.00
O2       0.89337    0.01923    0.89963   1.00
C1       0.06020    0.91390    0.95670   1.00
C1       0.08610    0.14630    0.95670   1.00
C1       0.85370    0.93980    0.95670   1.00
C1       0.14397    0.06663    0.89363   1.00
C1       0.92267    0.85603    0.89363   1.00
C1       0.93337    0.07733    0.89363   1.00
O1       0.00000    0.00000    0.42530   1.00
Zn      0.00000    0.00000    0.45440   1.00
Zn      0.05157    0.95713    0.41643   1.00
Zn      0.90557    0.94843    0.41643   1.00
Zn      0.04287    0.09443    0.41643   1.00
O2       0.06140    0.97390    0.46440   1.00
O2       0.91250    0.93860    0.46440   1.00
O2       0.02610    0.08750    0.46440   1.00
O2       0.08700    0.92840    0.43850   1.00
O2       0.99537    0.87973    0.39923   1.00
O2       0.12587    0.01923    0.39963   1.00
O2       0.84140    0.91300    0.43850   1.00
O2       0.89337    0.87413    0.39963   1.00
O2       0.88437    0.00463    0.39923   1.00
O2       0.07160    0.15860    0.43850   1.00
O2       0.12027    0.11563    0.39923   1.00
O2       0.98077    0.10663    0.39963   1.00
C1       0.08610    0.93980    0.45670   1.00
C1       0.85370    0.91390    0.45670   1.00
C1       0.06020    0.14630    0.45670   1.00
C1       0.93337    0.85603    0.39363   1.00
C1       0.14397    0.07733    0.39363   1.00
C1       0.92267    0.06663    0.39363   1.00
O1       0.00000    0.00000    0.07470   1.00
Zn      0.00000    0.00000    0.04560   1.00
Zn      0.95713    0.05157    0.08357   1.00
Zn      0.94843    0.90557    0.08357   1.00
Zn      0.09443    0.04287    0.08357   1.00
O2       0.97390    0.06140    0.03560   1.00
O2       0.93860    0.91250    0.03560   1.00
O2       0.08750    0.02610    0.03560   1.00
O2       0.92840    0.08700    0.06150   1.00
O2       0.87973    0.99537    0.10077   1.00
O2       0.01923    0.12587    0.10037   1.00
O2       0.91300    0.84140    0.06150   1.00
O2       0.87413    0.89337    0.10037   1.00
O2       0.00463    0.88437    0.10077   1.00
O2       0.15860    0.07160    0.06150   1.00
O2       0.11563    0.12027    0.10077   1.00
O2       0.10663    0.98077    0.10037   1.00
C1       0.93980    0.08610    0.04330   1.00
C1       0.91390    0.85370    0.04330   1.00
C1       0.14630    0.06020    0.04330   1.00
C1       0.85603    0.93337    0.10637   1.00
C1       0.07733    0.14397    0.10637   1.00
C1       0.06663    0.92267    0.10637   1.00
O1       0.66667    0.33333    0.90803   1.00
Zn      0.66667    0.33333    0.87893   1.00
Zn      0.61510    0.37620    0.91690   1.00
Zn      0.76110    0.38490    0.91690   1.00
Zn      0.62380    0.23890    0.91690   1.00
O2       0.60527    0.35943    0.86893   1.00
O2       0.75417    0.39473    0.86893   1.00
O2       0.64057    0.24583    0.86893   1.00
O2       0.57967    0.40493    0.89483   1.00
O2       0.67130    0.45360    0.93410   1.00
O2       0.54080    0.31410    0.93370   1.00
O2       0.82527    0.42033    0.89483   1.00
O2       0.77330    0.45920    0.93370   1.00
O2       0.78230    0.32870    0.93410   1.00
O2       0.59507    0.17473    0.89483   1.00
O2       0.54640    0.21770    0.93410   1.00
O2       0.68590    0.22670    0.93370   1.00
C1       0.58057    0.39353    0.87663   1.00
C1       0.81297    0.41943    0.87663   1.00
C1       0.60647    0.18703    0.87663   1.00
C1       0.73330    0.47730    0.93970   1.00
C1       0.52270    0.25600    0.93970   1.00
C1       0.74400    0.26670    0.93970   1.00
O1       0.66667    0.33333    0.25863   1.00
Zn      0.66667    0.33333    0.28773   1.00
Zn      0.70953    0.28177    0.24977   1.00
Zn      0.71823    0.42777    0.24977   1.00
Zn      0.57223    0.29047    0.24977   1.00
O2       0.69277    0.27193    0.29773   1.00
O2       0.72807    0.42083    0.29773   1.00
O2       0.57917    0.30723    0.29773   1.00
O2       0.73827    0.24633    0.27183   1.00
O2       0.78693    0.33797    0.23257   1.00
O2       0.64743    0.20747    0.23297   1.00
O2       0.75367    0.49193    0.27183   1.00
O2       0.79253    0.43997    0.23297   1.00
O2       0.66203    0.44897    0.23257   1.00
O2       0.50807    0.26173    0.27183   1.00
O2       0.55103    0.21307    0.23257   1.00
O2       0.56003    0.35257    0.23297   1.00
C1       0.72687    0.24723    0.29003   1.00
C1       0.75277    0.47963    0.29003   1.00
C1       0.52037    0.27313    0.29003   1.00
C1       0.81063    0.39997    0.22697   1.00
C1       0.58933    0.18937    0.22697   1.00
C1       0.60003    0.41067    0.22697   1.00
O1       0.66667    0.33333    0.75863   1.00
Zn      0.66667    0.33333    0.78773   1.00
Zn      0.71823    0.29047    0.74977   1.00
Zn      0.57223    0.28177    0.74977   1.00
Zn      0.70953    0.42777    0.74977   1.00
O2       0.72807    0.30723    0.79773   1.00
O2       0.57917    0.27193    0.79773   1.00
O2       0.69277    0.42083    0.79773   1.00
O2       0.75367    0.26173    0.77183   1.00
O2       0.66203    0.21307    0.73257   1.00
O2       0.79253    0.35257    0.73297   1.00
O2       0.50807    0.24633    0.77183   1.00
O2       0.56003    0.20747    0.73297   1.00
O2       0.55103    0.33797    0.73257   1.00
O2       0.73827    0.49193    0.77183   1.00
O2       0.78693    0.44897    0.73257   1.00
O2       0.64743    0.43997    0.73297   1.00
C1       0.75277    0.27313    0.79003   1.00
C1       0.52037    0.24723    0.79003   1.00
C1       0.72687    0.47963    0.79003   1.00
C1       0.60003    0.18937    0.72697   1.00
C1       0.81063    0.41067    0.72697   1.00
C1       0.58933    0.39997    0.72697   1.00
O1       0.66667    0.33333    0.40803   1.00
Zn      0.66667    0.33333    0.37893   1.00
Zn      0.62380    0.38490    0.41690   1.00
Zn      0.61510    0.23890    0.41690   1.00
Zn      0.76110    0.37620    0.41690   1.00
O2       0.64057    0.39473    0.36893   1.00
O2       0.60527    0.24583    0.36893   1.00
O2       0.75417    0.35943    0.36893   1.00
O2       0.59507    0.42033    0.39483   1.00
O2       0.54640    0.32870    0.43410   1.00
O2       0.68590    0.45920    0.43370   1.00
O2       0.57967    0.17473    0.39483   1.00
O2       0.54080    0.22670    0.43370   1.00
O2       0.67130    0.21770    0.43410   1.00
O2       0.82527    0.40493    0.39483   1.00
O2       0.78230    0.45360    0.43410   1.00
O2       0.77330    0.31410    0.43370   1.00
C1       0.60647    0.41943    0.37663   1.00
C1       0.58057    0.18703    0.37663   1.00
C1       0.81297    0.39353    0.37663   1.00
C1       0.52270    0.26670    0.43970   1.00
C1       0.74400    0.47730    0.43970   1.00
C1       0.73330    0.25600    0.43970   1.00
O1       0.33333    0.66667    0.24137   1.00
Zn      0.33333    0.66667    0.21227   1.00
Zn      0.28177    0.70953    0.25023   1.00
Zn      0.42777    0.71823    0.25023   1.00
Zn      0.29047    0.57223    0.25023   1.00
O2       0.27193    0.69277    0.20227   1.00
O2       0.42083    0.72807    0.20227   1.00
O2       0.30723    0.57917    0.20227   1.00
O2       0.24633    0.73827    0.22817   1.00
O2       0.33797    0.78693    0.26743   1.00
O2       0.20747    0.64743    0.26703   1.00
O2       0.49193    0.75367    0.22817   1.00
O2       0.43997    0.79253    0.26703   1.00
O2       0.44897    0.66203    0.26743   1.00
O2       0.26173    0.50807    0.22817   1.00
O2       0.21307    0.55103    0.26743   1.00
O2       0.35257    0.56003    0.26703   1.00
C1       0.24723    0.72687    0.20997   1.00
C1       0.47963    0.75277    0.20997   1.00
C1       0.27313    0.52037    0.20997   1.00
C1       0.39997    0.81063    0.27303   1.00
C1       0.18937    0.58933    0.27303   1.00
C1       0.41067    0.60003    0.27303   1.00
O1       0.33333    0.66667    0.59197   1.00
Zn      0.33333    0.66667    0.62107   1.00
Zn      0.37620    0.61510    0.58310   1.00
Zn      0.38490    0.76110    0.58310   1.00
Zn      0.23890    0.62380    0.58310   1.00
O2       0.35943    0.60527    0.63107   1.00
O2       0.39473    0.75417    0.63107   1.00
O2       0.24583    0.64057    0.63107   1.00
O2       0.40493    0.57967    0.60517   1.00
O2       0.45360    0.67130    0.56590   1.00
O2       0.31410    0.54080    0.56630   1.00
O2       0.42033    0.82527    0.60517   1.00
O2       0.45920    0.77330    0.56630   1.00
O2       0.32870    0.78230    0.56590   1.00
O2       0.17473    0.59507    0.60517   1.00
O2       0.21770    0.54640    0.56590   1.00
O2       0.22670    0.68590    0.56630   1.00
C1       0.39353    0.58057    0.62337   1.00
C1       0.41943    0.81297    0.62337   1.00
C1       0.18703    0.60647    0.62337   1.00
C1       0.47730    0.73330    0.56030   1.00
C1       0.25600    0.52270    0.56030   1.00
C1       0.26670    0.74400    0.56030   1.00
O1       0.33333    0.66667    0.09197   1.00
Zn      0.33333    0.66667    0.12107   1.00
Zn      0.38490    0.62380    0.08310   1.00
Zn      0.23890    0.61510    0.08310   1.00
Zn      0.37620    0.76110    0.08310   1.00
O2       0.39473    0.64057    0.13107   1.00
O2       0.24583    0.60527    0.13107   1.00
O2       0.35943    0.75417    0.13107   1.00
O2       0.42033    0.59507    0.10517   1.00
O2       0.32870    0.54640    0.06590   1.00
O2       0.45920    0.68590    0.06630   1.00
O2       0.17473    0.57967    0.10517   1.00
O2       0.22670    0.54080    0.06630   1.00
O2       0.21770    0.67130    0.06590   1.00
O2       0.40493    0.82527    0.10517   1.00
O2       0.45360    0.78230    0.06590   1.00
O2       0.31410    0.77330    0.06630   1.00
C1       0.41943    0.60647    0.12337   1.00
C1       0.18703    0.58057    0.12337   1.00
C1       0.39353    0.81297    0.12337   1.00
C1       0.26670    0.52270    0.06030   1.00
C1       0.47730    0.74400    0.06030   1.00
C1       0.25600    0.73330    0.06030   1.00
O1       0.33333    0.66667    0.74137   1.00
Zn      0.33333    0.66667    0.71227   1.00
Zn      0.29047    0.71823    0.75023   1.00
Zn      0.28177    0.57223    0.75023   1.00
Zn      0.42777    0.70953    0.75023   1.00
O2       0.30723    0.72807    0.70227   1.00
O2       0.27193    0.57917    0.70227   1.00
O2       0.42083    0.69277    0.70227   1.00
O2       0.26173    0.75367    0.72817   1.00
O2       0.21307    0.66203    0.76743   1.00
O2       0.35257    0.79253    0.76703   1.00
O2       0.24633    0.50807    0.72817   1.00
O2       0.20747    0.56003    0.76703   1.00
O2       0.33797    0.55103    0.76743   1.00
O2       0.49193    0.73827    0.72817   1.00
O2       0.44897    0.78693    0.76743   1.00
O2       0.43997    0.64743    0.76703   1.00
C1       0.27313    0.75277    0.70997   1.00
C1       0.24723    0.52037    0.70997   1.00
C1       0.47963    0.72687    0.70997   1.00
C1       0.18937    0.60003    0.77303   1.00
C1       0.41067    0.81063    0.77303   1.00
C1       0.39997    0.58933    0.77303   1.00
C2       0.77100    0.52109    0.45972   1.00
C3       0.73601    0.52552    0.47524   1.00
H1       0.69141    0.49064    0.47726   1.00
C3       0.83669    0.57170    0.45740   1.00
H1       0.86242    0.56911    0.44681   1.00
C4       0.76330    0.57964    0.48852   1.00
C5       0.72343    0.58461    0.50637   1.00
H2       0.72798    0.56100    0.51782   1.00
H2       0.67619    0.56425    0.50274   1.00
H2       0.74083    0.63159    0.50978   1.00
C4       0.86628    0.62691    0.47037   1.00
C5       0.94189    0.68363    0.46783   1.00
H2       0.94425    0.72045    0.46006   1.00
H2       0.96675    0.66536    0.46107   1.00
H2       0.96157    0.70023    0.48096   1.00
C6       0.82992    0.63080    0.48639   1.00
C6       0.86165    0.68930    0.50061   1.00
C4       0.89257    0.68521    0.51828   1.00
C5       0.90157    0.62559    0.52186   1.00
H2       0.86313    0.59143    0.52925   1.00
H2       0.94225    0.63949    0.52949   1.00
H2       0.90491    0.60722    0.50900   1.00
C4       0.85780    0.74703    0.49577   1.00
C5       0.82343    0.75398    0.47669   1.00
H2       0.85588    0.77113    0.46574   1.00
H2       0.80701    0.78497    0.47923   1.00
H2       0.78607    0.71019    0.47304   1.00
C3       0.91879    0.73957    0.53167   1.00
H1       0.94056    0.73746    0.54340   1.00
C3       0.88478    0.80064    0.51073   1.00
H1       0.88212    0.83961    0.50822   1.00
C2       0.91370    0.79640    0.52810   1.00
C2       0.47891    0.24991    0.45972   1.00
C3       0.47448    0.21049    0.47524   1.00
H1       0.50936    0.20077    0.47726   1.00
C3       0.42830    0.26499    0.45740   1.00
H1       0.43089    0.29331    0.44681   1.00
C4       0.42036    0.18366    0.48852   1.00
C5       0.41539    0.13882    0.50637   1.00
H2       0.43900    0.16698    0.51782   1.00
H2       0.43575    0.11194    0.50274   1.00
H2       0.36841    0.10924    0.50978   1.00
C4       0.37309    0.23937    0.47037   1.00
C5       0.31637    0.25826    0.46783   1.00
H2       0.27955    0.22380    0.46006   1.00
H2       0.33464    0.30139    0.46107   1.00
H2       0.29977    0.26134    0.48096   1.00
C6       0.36920    0.19912    0.48639   1.00
C6       0.31070    0.17235    0.50061   1.00
C4       0.31479    0.20736    0.51828   1.00
C5       0.37441    0.27598    0.52186   1.00
H2       0.40857    0.27170    0.52925   1.00
H2       0.36051    0.30276    0.52949   1.00
H2       0.39278    0.29769    0.50900   1.00
C4       0.25297    0.11077    0.49577   1.00
C5       0.24602    0.06945    0.47669   1.00
H2       0.22887    0.08475    0.46574   1.00
H2       0.21503    0.02204    0.47923   1.00
H2       0.28981    0.07588    0.47304   1.00
C3       0.26043    0.17922    0.53167   1.00
H1       0.26254    0.20310    0.54340   1.00
C3       0.19936    0.08414    0.51073   1.00
H1       0.16039    0.04251    0.50822   1.00
C2       0.20360    0.11730    0.52810   1.00
C2       0.75009    0.22900    0.45972   1.00
C3       0.78951    0.26399    0.47524   1.00
H1       0.79923    0.30859    0.47726   1.00
C3       0.73501    0.16331    0.45740   1.00
H1       0.70669    0.13758    0.44681   1.00
C4       0.81634    0.23670    0.48852   1.00
C5       0.86118    0.27657    0.50637   1.00
H2       0.83302    0.27202    0.51782   1.00
H2       0.88806    0.32381    0.50274   1.00
H2       0.89076    0.25917    0.50978   1.00
C4       0.76063    0.13372    0.47037   1.00
C5       0.74174    0.05811    0.46783   1.00
H2       0.77620    0.05575    0.46006   1.00
H2       0.69861    0.03325    0.46107   1.00
H2       0.73866    0.03843    0.48096   1.00
C6       0.80088    0.17008    0.48639   1.00
C6       0.82765    0.13835    0.50061   1.00
C4       0.79264    0.10743    0.51828   1.00
C5       0.72402    0.09843    0.52186   1.00
H2       0.72830    0.13687    0.52925   1.00
H2       0.69724    0.05775    0.52949   1.00
H2       0.70231    0.09509    0.50900   1.00
C4       0.88923    0.14220    0.49577   1.00
C5       0.93055    0.17657    0.47669   1.00
H2       0.91525    0.14412    0.46574   1.00
H2       0.97796    0.19299    0.47923   1.00
H2       0.92412    0.21393    0.47304   1.00
C3       0.82078    0.08121    0.53167   1.00
H1       0.79690    0.05944    0.54340   1.00
C3       0.91586    0.11522    0.51073   1.00
H1       0.95749    0.11788    0.50822   1.00
C2       0.88270    0.08630    0.52810   1.00
C2       0.52109    0.77100    0.04028   1.00
C3       0.52552    0.73601    0.02476   1.00
H1       0.49064    0.69141    0.02274   1.00
C3       0.57170    0.83669    0.04260   1.00
H1       0.56911    0.86242    0.05319   1.00
C4       0.57964    0.76330    0.01148   1.00
C5       0.58461    0.72343    0.99363   1.00
H2       0.56100    0.72798    0.98218   1.00
H2       0.56425    0.67619    0.99726   1.00
H2       0.63159    0.74083    0.99022   1.00
C4       0.62691    0.86628    0.02963   1.00
C5       0.68363    0.94189    0.03217   1.00
H2       0.72045    0.94425    0.03994   1.00
H2       0.66536    0.96675    0.03893   1.00
H2       0.70023    0.96157    0.01904   1.00
C6       0.63080    0.82992    0.01361   1.00
C6       0.68930    0.86165    0.99939   1.00
C4       0.68521    0.89257    0.98172   1.00
C5       0.62559    0.90157    0.97814   1.00
H2       0.59143    0.86313    0.97075   1.00
H2       0.63949    0.94225    0.97051   1.00
H2       0.60722    0.90491    0.99100   1.00
C4       0.74703    0.85780    0.00423   1.00
C5       0.75398    0.82343    0.02331   1.00
H2       0.77113    0.85588    0.03426   1.00
H2       0.78497    0.80701    0.02077   1.00
H2       0.71019    0.78607    0.02696   1.00
C3       0.73957    0.91879    0.96833   1.00
H1       0.73746    0.94056    0.95660   1.00
C3       0.80064    0.88478    0.98927   1.00
H1       0.83961    0.88212    0.99178   1.00
C2       0.79640    0.91370    0.97190   1.00
C2       0.24991    0.47891    0.04028   1.00
C3       0.21049    0.47448    0.02476   1.00
H1       0.20077    0.50936    0.02274   1.00
C3       0.26499    0.42830    0.04260   1.00
H1       0.29331    0.43089    0.05319   1.00
C4       0.18366    0.42036    0.01148   1.00
C5       0.13882    0.41539    0.99363   1.00
H2       0.16698    0.43900    0.98218   1.00
H2       0.11194    0.43575    0.99726   1.00
H2       0.10924    0.36841    0.99022   1.00
C4       0.23937    0.37309    0.02963   1.00
C5       0.25826    0.31637    0.03217   1.00
H2       0.22380    0.27955    0.03994   1.00
H2       0.30139    0.33464    0.03893   1.00
H2       0.26134    0.29977    0.01904   1.00
C6       0.19912    0.36920    0.01361   1.00
C6       0.17235    0.31070    0.99939   1.00
C4       0.20736    0.31479    0.98172   1.00
C5       0.27598    0.37441    0.97814   1.00
H2       0.27170    0.40857    0.97075   1.00
H2       0.30276    0.36051    0.97051   1.00
H2       0.29769    0.39278    0.99100   1.00
C4       0.11077    0.25297    0.00423   1.00
C5       0.06945    0.24602    0.02331   1.00
H2       0.08475    0.22887    0.03426   1.00
H2       0.02204    0.21503    0.02077   1.00
H2       0.07588    0.28981    0.02696   1.00
C3       0.17922    0.26043    0.96833   1.00
H1       0.20310    0.26254    0.95660   1.00
C3       0.08414    0.19936    0.98927   1.00
H1       0.04251    0.16039    0.99178   1.00
C2       0.11730    0.20360    0.97190   1.00
C2       0.22900    0.75009    0.04028   1.00
C3       0.26399    0.78951    0.02476   1.00
H1       0.30859    0.79923    0.02274   1.00
C3       0.16331    0.73501    0.04260   1.00
H1       0.13758    0.70669    0.05319   1.00
C4       0.23670    0.81634    0.01148   1.00
C5       0.27657    0.86118    0.99363   1.00
H2       0.27202    0.83302    0.98218   1.00
H2       0.32381    0.88806    0.99726   1.00
H2       0.25917    0.89076    0.99022   1.00
C4       0.13372    0.76063    0.02963   1.00
C5       0.05811    0.74174    0.03217   1.00
H2       0.05575    0.77620    0.03994   1.00
H2       0.03325    0.69861    0.03893   1.00
H2       0.03843    0.73866    0.01904   1.00
C6       0.17008    0.80088    0.01361   1.00
C6       0.13835    0.82765    0.99939   1.00
C4       0.10743    0.79264    0.98172   1.00
C5       0.09843    0.72402    0.97814   1.00
H2       0.13687    0.72830    0.97075   1.00
H2       0.05775    0.69724    0.97051   1.00
H2       0.09509    0.70231    0.99100   1.00
C4       0.14220    0.88923    0.00423   1.00
C5       0.17657    0.93055    0.02331   1.00
H2       0.14412    0.91525    0.03426   1.00
H2       0.19299    0.97796    0.02077   1.00
H2       0.21393    0.92412    0.02696   1.00
C3       0.08121    0.82078    0.96833   1.00
H1       0.05944    0.79690    0.95660   1.00
C3       0.11522    0.91586    0.98927   1.00
H1       0.11788    0.95749    0.99178   1.00
C2       0.08630    0.88270    0.97190   1.00
C2       0.22900    0.47891    0.54028   1.00
C3       0.26399    0.47448    0.52476   1.00
H1       0.30859    0.50936    0.52274   1.00
C3       0.16331    0.42830    0.54260   1.00
H1       0.13758    0.43089    0.55319   1.00
C4       0.23670    0.42036    0.51148   1.00
C5       0.27657    0.41539    0.49363   1.00
H2       0.27202    0.43900    0.48218   1.00
H2       0.32381    0.43575    0.49726   1.00
H2       0.25917    0.36841    0.49022   1.00
C4       0.13372    0.37309    0.52963   1.00
C5       0.05811    0.31637    0.53217   1.00
H2       0.05575    0.27955    0.53994   1.00
H2       0.03325    0.33464    0.53893   1.00
H2       0.03843    0.29977    0.51904   1.00
C6       0.17008    0.36920    0.51361   1.00
C6       0.13835    0.31070    0.49939   1.00
C4       0.10743    0.31479    0.48172   1.00
C5       0.09843    0.37441    0.47814   1.00
H2       0.13687    0.40857    0.47075   1.00
H2       0.05775    0.36051    0.47051   1.00
H2       0.09509    0.39278    0.49100   1.00
C4       0.14220    0.25297    0.50423   1.00
C5       0.17657    0.24602    0.52331   1.00
H2       0.14412    0.22887    0.53426   1.00
H2       0.19299    0.21503    0.52077   1.00
H2       0.21393    0.28981    0.52696   1.00
C3       0.08121    0.26043    0.46833   1.00
H1       0.05944    0.26254    0.45660   1.00
C3       0.11522    0.19936    0.48927   1.00
H1       0.11788    0.16039    0.49178   1.00
C2       0.08630    0.20360    0.47190   1.00
C2       0.52109    0.75009    0.54028   1.00
C3       0.52552    0.78951    0.52476   1.00
H1       0.49064    0.79923    0.52274   1.00
C3       0.57170    0.73501    0.54260   1.00
H1       0.56911    0.70669    0.55319   1.00
C4       0.57964    0.81634    0.51148   1.00
C5       0.58461    0.86118    0.49363   1.00
H2       0.56100    0.83302    0.48218   1.00
H2       0.56425    0.88806    0.49726   1.00
H2       0.63159    0.89076    0.49022   1.00
C4       0.62691    0.76063    0.52963   1.00
C5       0.68363    0.74174    0.53217   1.00
H2       0.72045    0.77620    0.53994   1.00
H2       0.66536    0.69861    0.53893   1.00
H2       0.70023    0.73866    0.51904   1.00
C6       0.63080    0.80088    0.51361   1.00
C6       0.68930    0.82765    0.49939   1.00
C4       0.68521    0.79264    0.48172   1.00
C5       0.62559    0.72402    0.47814   1.00
H2       0.59143    0.72830    0.47075   1.00
H2       0.63949    0.69724    0.47051   1.00
H2       0.60722    0.70231    0.49100   1.00
C4       0.74703    0.88923    0.50423   1.00
C5       0.75398    0.93055    0.52331   1.00
H2       0.77113    0.91525    0.53426   1.00
H2       0.78497    0.97796    0.52077   1.00
H2       0.71019    0.92412    0.52696   1.00
C3       0.73957    0.82078    0.46833   1.00
H1       0.73746    0.79690    0.45660   1.00
C3       0.80064    0.91586    0.48927   1.00
H1       0.83961    0.95749    0.49178   1.00
C2       0.79640    0.88270    0.47190   1.00
C2       0.24991    0.77100    0.54028   1.00
C3       0.21049    0.73601    0.52476   1.00
H1       0.20077    0.69141    0.52274   1.00
C3       0.26499    0.83669    0.54260   1.00
H1       0.29331    0.86242    0.55319   1.00
C4       0.18366    0.76330    0.51148   1.00
C5       0.13882    0.72343    0.49363   1.00
H2       0.16698    0.72798    0.48218   1.00
H2       0.11194    0.67619    0.49726   1.00
H2       0.10924    0.74083    0.49022   1.00
C4       0.23937    0.86628    0.52963   1.00
C5       0.25826    0.94189    0.53217   1.00
H2       0.22380    0.94425    0.53994   1.00
H2       0.30139    0.96675    0.53893   1.00
H2       0.26134    0.96157    0.51904   1.00
C6       0.19912    0.82992    0.51361   1.00
C6       0.17235    0.86165    0.49939   1.00
C4       0.20736    0.89257    0.48172   1.00
C5       0.27598    0.90157    0.47814   1.00
H2       0.27170    0.86313    0.47075   1.00
H2       0.30276    0.94225    0.47051   1.00
H2       0.29769    0.90491    0.49100   1.00
C4       0.11077    0.85780    0.50423   1.00
C5       0.06945    0.82343    0.52331   1.00
H2       0.08475    0.85588    0.53426   1.00
H2       0.02204    0.80701    0.52077   1.00
H2       0.07588    0.78607    0.52696   1.00
C3       0.17922    0.91879    0.46833   1.00
H1       0.20310    0.94056    0.45660   1.00
C3       0.08414    0.88478    0.48927   1.00
H1       0.04251    0.88212    0.49178   1.00
C2       0.11730    0.91370    0.47190   1.00
C2       0.47891    0.22900    0.95972   1.00
C3       0.47448    0.26399    0.97524   1.00
H1       0.50936    0.30859    0.97726   1.00
C3       0.42830    0.16331    0.95740   1.00
H1       0.43089    0.13758    0.94681   1.00
C4       0.42036    0.23670    0.98852   1.00
C5       0.41539    0.27657    0.00637   1.00
H2       0.43900    0.27202    0.01782   1.00
H2       0.43575    0.32381    0.00274   1.00
H2       0.36841    0.25917    0.00978   1.00
C4       0.37309    0.13372    0.97037   1.00
C5       0.31637    0.05811    0.96783   1.00
H2       0.27955    0.05575    0.96006   1.00
H2       0.33464    0.03325    0.96107   1.00
H2       0.29977    0.03843    0.98096   1.00
C6       0.36920    0.17008    0.98639   1.00
C6       0.31070    0.13835    0.00061   1.00
C4       0.31479    0.10743    0.01828   1.00
C5       0.37441    0.09843    0.02186   1.00
H2       0.40857    0.13687    0.02925   1.00
H2       0.36051    0.05775    0.02949   1.00
H2       0.39278    0.09509    0.00900   1.00
C4       0.25297    0.14220    0.99577   1.00
C5       0.24602    0.17657    0.97669   1.00
H2       0.22887    0.14412    0.96574   1.00
H2       0.21503    0.19299    0.97923   1.00
H2       0.28981    0.21393    0.97304   1.00
C3       0.26043    0.08121    0.03167   1.00
H1       0.26254    0.05944    0.04340   1.00
C3       0.19936    0.11522    0.01073   1.00
H1       0.16039    0.11788    0.00822   1.00
C2       0.20360    0.08630    0.02810   1.00
C2       0.75009    0.52109    0.95972   1.00
C3       0.78951    0.52552    0.97524   1.00
H1       0.79923    0.49064    0.97726   1.00
C3       0.73501    0.57170    0.95740   1.00
H1       0.70669    0.56911    0.94681   1.00
C4       0.81634    0.57964    0.98852   1.00
C5       0.86118    0.58461    0.00637   1.00
H2       0.83302    0.56100    0.01782   1.00
H2       0.88806    0.56425    0.00274   1.00
H2       0.89076    0.63159    0.00978   1.00
C4       0.76063    0.62691    0.97037   1.00
C5       0.74174    0.68363    0.96783   1.00
H2       0.77620    0.72045    0.96006   1.00
H2       0.69861    0.66536    0.96107   1.00
H2       0.73866    0.70023    0.98096   1.00
C6       0.80088    0.63080    0.98639   1.00
C6       0.82765    0.68930    0.00061   1.00
C4       0.79264    0.68521    0.01828   1.00
C5       0.72402    0.62559    0.02186   1.00
H2       0.72830    0.59143    0.02925   1.00
H2       0.69724    0.63949    0.02949   1.00
H2       0.70231    0.60722    0.00900   1.00
C4       0.88923    0.74703    0.99577   1.00
C5       0.93055    0.75398    0.97669   1.00
H2       0.91525    0.77113    0.96574   1.00
H2       0.97796    0.78497    0.97923   1.00
H2       0.92412    0.71019    0.97304   1.00
C3       0.82078    0.73957    0.03167   1.00
H1       0.79690    0.73746    0.04340   1.00
C3       0.91586    0.80064    0.01073   1.00
H1       0.95749    0.83961    0.00822   1.00
C2       0.88270    0.79640    0.02810   1.00
C2       0.77100    0.24991    0.95972   1.00
C3       0.73601    0.21049    0.97524   1.00
H1       0.69141    0.20077    0.97726   1.00
C3       0.83669    0.26499    0.95740   1.00
H1       0.86242    0.29331    0.94681   1.00
C4       0.76330    0.18366    0.98852   1.00
C5       0.72343    0.13882    0.00637   1.00
H2       0.72798    0.16698    0.01782   1.00
H2       0.67619    0.11194    0.00274   1.00
H2       0.74083    0.10924    0.00978   1.00
C4       0.86628    0.23937    0.97037   1.00
C5       0.94189    0.25826    0.96783   1.00
H2       0.94425    0.22380    0.96006   1.00
H2       0.96675    0.30139    0.96107   1.00
H2       0.96157    0.26134    0.98096   1.00
C6       0.82992    0.19912    0.98639   1.00
C6       0.86165    0.17235    0.00061   1.00
C4       0.89257    0.20736    0.01828   1.00
C5       0.90157    0.27598    0.02186   1.00
H2       0.86313    0.27170    0.02925   1.00
H2       0.94225    0.30276    0.02949   1.00
H2       0.90491    0.29769    0.00900   1.00
C4       0.85780    0.11077    0.99577   1.00
C5       0.82343    0.06945    0.97669   1.00
H2       0.85588    0.08475    0.96574   1.00
H2       0.80701    0.02204    0.97923   1.00
H2       0.78607    0.07588    0.97304   1.00
C3       0.91879    0.17922    0.03167   1.00
H1       0.94056    0.20310    0.04340   1.00
C3       0.88478    0.08414    0.01073   1.00
H1       0.88212    0.04251    0.00822   1.00
C2       0.91370    0.11730    0.02810   1.00
C2       0.43767    0.85442    0.79305   1.00
C3       0.40268    0.85885    0.80857   1.00
H1       0.35808    0.82397    0.81059   1.00
C3       0.50336    0.90503    0.79073   1.00
H1       0.52909    0.90244    0.78014   1.00
C4       0.42997    0.91297    0.82185   1.00
C5       0.39010    0.91794    0.83970   1.00
H2       0.39465    0.89433    0.85115   1.00
H2       0.34286    0.89758    0.83607   1.00
H2       0.40750    0.96492    0.84311   1.00
C4       0.53295    0.96024    0.80370   1.00
C5       0.60856    0.01696    0.80116   1.00
H2       0.61092    0.05378    0.79339   1.00
H2       0.63342    0.99869    0.79440   1.00
H2       0.62824    0.03356    0.81429   1.00
C6       0.49659    0.96413    0.81972   1.00
C6       0.52832    0.02263    0.83394   1.00
C4       0.55924    0.01854    0.85161   1.00
C5       0.56824    0.95892    0.85519   1.00
H2       0.52980    0.92476    0.86258   1.00
H2       0.60892    0.97282    0.86282   1.00
H2       0.57158    0.94055    0.84233   1.00
C4       0.52447    0.08036    0.82910   1.00
C5       0.49010    0.08731    0.81002   1.00
H2       0.52255    0.10446    0.79907   1.00
H2       0.47368    0.11830    0.81256   1.00
H2       0.45274    0.04352    0.80637   1.00
C3       0.58546    0.07290    0.86500   1.00
H1       0.60723    0.07079    0.87673   1.00
C3       0.55145    0.13397    0.84406   1.00
H1       0.54879    0.17294    0.84155   1.00
C2       0.58037    0.12973    0.86143   1.00
C2       0.14558    0.58324    0.79305   1.00
C3       0.14115    0.54382    0.80857   1.00
H1       0.17603    0.53410    0.81059   1.00
C3       0.09497    0.59832    0.79073   1.00
H1       0.09756    0.62664    0.78014   1.00
C4       0.08703    0.51699    0.82185   1.00
C5       0.08206    0.47215    0.83970   1.00
H2       0.10567    0.50031    0.85115   1.00
H2       0.10242    0.44527    0.83607   1.00
H2       0.03508    0.44257    0.84311   1.00
C4       0.03976    0.57270    0.80370   1.00
C5       0.98304    0.59159    0.80116   1.00
H2       0.94622    0.55713    0.79339   1.00
H2       0.00131    0.63472    0.79440   1.00
H2       0.96644    0.59467    0.81429   1.00
C6       0.03587    0.53245    0.81972   1.00
C6       0.97737    0.50568    0.83394   1.00
C4       0.98146    0.54069    0.85161   1.00
C5       0.04108    0.60931    0.85519   1.00
H2       0.07524    0.60503    0.86258   1.00
H2       0.02718    0.63609    0.86282   1.00
H2       0.05945    0.63102    0.84233   1.00
C4       0.91964    0.44410    0.82910   1.00
C5       0.91269    0.40278    0.81002   1.00
H2       0.89554    0.41808    0.79907   1.00
H2       0.88170    0.35537    0.81256   1.00
H2       0.95648    0.40921    0.80637   1.00
C3       0.92710    0.51255    0.86500   1.00
H1       0.92921    0.53643    0.87673   1.00
C3       0.86603    0.41747    0.84406   1.00
H1       0.82706    0.37584    0.84155   1.00
C2       0.87027    0.45063    0.86143   1.00
C2       0.41676    0.56233    0.79305   1.00
C3       0.45618    0.59732    0.80857   1.00
H1       0.46590    0.64192    0.81059   1.00
C3       0.40168    0.49664    0.79073   1.00
H1       0.37336    0.47091    0.78014   1.00
C4       0.48301    0.57003    0.82185   1.00
C5       0.52785    0.60990    0.83970   1.00
H2       0.49969    0.60535    0.85115   1.00
H2       0.55473    0.65714    0.83607   1.00
H2       0.55743    0.59250    0.84311   1.00
C4       0.42730    0.46705    0.80370   1.00
C5       0.40841    0.39144    0.80116   1.00
H2       0.44287    0.38908    0.79339   1.00
H2       0.36528    0.36658    0.79440   1.00
H2       0.40533    0.37176    0.81429   1.00
C6       0.46755    0.50341    0.81972   1.00
C6       0.49432    0.47168    0.83394   1.00
C4       0.45931    0.44076    0.85161   1.00
C5       0.39069    0.43176    0.85519   1.00
H2       0.39497    0.47020    0.86258   1.00
H2       0.36391    0.39108    0.86282   1.00
H2       0.36898    0.42842    0.84233   1.00
C4       0.55590    0.47553    0.82910   1.00
C5       0.59722    0.50990    0.81002   1.00
H2       0.58192    0.47745    0.79907   1.00
H2       0.64463    0.52632    0.81256   1.00
H2       0.59079    0.54726    0.80637   1.00
C3       0.48745    0.41454    0.86500   1.00
H1       0.46357    0.39277    0.87673   1.00
C3       0.58253    0.44855    0.84406   1.00
H1       0.62416    0.45121    0.84155   1.00
C2       0.54937    0.41963    0.86143   1.00
C2       0.18776    0.10433    0.37361   1.00
C3       0.19219    0.06934    0.35809   1.00
H1       0.15731    0.02474    0.35607   1.00
C3       0.23837    0.17002    0.37593   1.00
H1       0.23578    0.19575    0.38652   1.00
C4       0.24631    0.09663    0.34481   1.00
C5       0.25128    0.05676    0.32696   1.00
H2       0.22767    0.06131    0.31551   1.00
H2       0.23092    0.00952    0.33059   1.00
H2       0.29826    0.07416    0.32355   1.00
C4       0.29358    0.19961    0.36296   1.00
C5       0.35030    0.27522    0.36550   1.00
H2       0.38712    0.27758    0.37327   1.00
H2       0.33203    0.30008    0.37226   1.00
H2       0.36690    0.29490    0.35237   1.00
C6       0.29747    0.16325    0.34694   1.00
C6       0.35597    0.19498    0.33272   1.00
C4       0.35188    0.22590    0.31505   1.00
C5       0.29226    0.23490    0.31147   1.00
H2       0.25810    0.19646    0.30408   1.00
H2       0.30616    0.27558    0.30384   1.00
H2       0.27389    0.23824    0.32433   1.00
C4       0.41370    0.19113    0.33756   1.00
C5       0.42065    0.15676    0.35664   1.00
H2       0.43780    0.18921    0.36759   1.00
H2       0.45164    0.14034    0.35410   1.00
H2       0.37686    0.11940    0.36029   1.00
C3       0.40624    0.25212    0.30166   1.00
H1       0.40413    0.27389    0.28993   1.00
C3       0.46731    0.21811    0.32260   1.00
H1       0.50628    0.21545    0.32511   1.00
C2       0.46307    0.24703    0.30523   1.00
C2       0.91658    0.81224    0.37361   1.00
C3       0.87716    0.80781    0.35809   1.00
H1       0.86744    0.84269    0.35607   1.00
C3       0.93166    0.76163    0.37593   1.00
H1       0.95998    0.76422    0.38652   1.00
C4       0.85033    0.75369    0.34481   1.00
C5       0.80549    0.74872    0.32696   1.00
H2       0.83365    0.77233    0.31551   1.00
H2       0.77861    0.76908    0.33059   1.00
H2       0.77591    0.70174    0.32355   1.00
C4       0.90604    0.70642    0.36296   1.00
C5       0.92493    0.64970    0.36550   1.00
H2       0.89047    0.61288    0.37327   1.00
H2       0.96806    0.66797    0.37226   1.00
H2       0.92801    0.63310    0.35237   1.00
C6       0.86579    0.70253    0.34694   1.00
C6       0.83902    0.64403    0.33272   1.00
C4       0.87403    0.64812    0.31505   1.00
C5       0.94265    0.70774    0.31147   1.00
H2       0.93837    0.74190    0.30408   1.00
H2       0.96943    0.69384    0.30384   1.00
H2       0.96436    0.72611    0.32433   1.00
C4       0.77744    0.58630    0.33756   1.00
C5       0.73612    0.57935    0.35664   1.00
H2       0.75142    0.56220    0.36759   1.00
H2       0.68871    0.54836    0.35410   1.00
H2       0.74255    0.62314    0.36029   1.00
C3       0.84589    0.59376    0.30166   1.00
H1       0.86977    0.59587    0.28993   1.00
C3       0.75081    0.53269    0.32260   1.00
H1       0.70918    0.49372    0.32511   1.00
C2       0.78397    0.53693    0.30523   1.00
C2       0.89567    0.08342    0.37361   1.00
C3       0.93066    0.12284    0.35809   1.00
H1       0.97526    0.13256    0.35607   1.00
C3       0.82998    0.06834    0.37593   1.00
H1       0.80425    0.04002    0.38652   1.00
C4       0.90337    0.14967    0.34481   1.00
C5       0.94324    0.19451    0.32696   1.00
H2       0.93869    0.16635    0.31551   1.00
H2       0.99048    0.22139    0.33059   1.00
H2       0.92584    0.22409    0.32355   1.00
C4       0.80039    0.09396    0.36296   1.00
C5       0.72478    0.07507    0.36550   1.00
H2       0.72242    0.10953    0.37327   1.00
H2       0.69992    0.03194    0.37226   1.00
H2       0.70510    0.07199    0.35237   1.00
C6       0.83675    0.13421    0.34694   1.00
C6       0.80502    0.16098    0.33272   1.00
C4       0.77410    0.12597    0.31505   1.00
C5       0.76510    0.05735    0.31147   1.00
H2       0.80354    0.06163    0.30408   1.00
H2       0.72442    0.03057    0.30384   1.00
H2       0.76176    0.03564    0.32433   1.00
C4       0.80887    0.22256    0.33756   1.00
C5       0.84324    0.26388    0.35664   1.00
H2       0.81079    0.24858    0.36759   1.00
H2       0.85966    0.31129    0.35410   1.00
H2       0.88060    0.25745    0.36029   1.00
C3       0.74788    0.15411    0.30166   1.00
H1       0.72611    0.13023    0.28993   1.00
C3       0.78189    0.24919    0.32260   1.00
H1       0.78455    0.29082    0.32511   1.00
C2       0.75297    0.21603    0.30523   1.00
C2       0.89567    0.81224    0.87361   1.00
C3       0.93066    0.80781    0.85809   1.00
H1       0.97526    0.84269    0.85607   1.00
C3       0.82998    0.76163    0.87593   1.00
H1       0.80425    0.76422    0.88652   1.00
C4       0.90337    0.75369    0.84481   1.00
C5       0.94324    0.74872    0.82696   1.00
H2       0.93869    0.77233    0.81551   1.00
H2       0.99048    0.76908    0.83059   1.00
H2       0.92584    0.70174    0.82355   1.00
C4       0.80039    0.70642    0.86296   1.00
C5       0.72478    0.64970    0.86550   1.00
H2       0.72242    0.61288    0.87327   1.00
H2       0.69992    0.66797    0.87226   1.00
H2       0.70510    0.63310    0.85237   1.00
C6       0.83675    0.70253    0.84694   1.00
C6       0.80502    0.64403    0.83272   1.00
C4       0.77410    0.64812    0.81505   1.00
C5       0.76510    0.70774    0.81147   1.00
H2       0.80354    0.74190    0.80408   1.00
H2       0.72442    0.69384    0.80384   1.00
H2       0.76176    0.72611    0.82433   1.00
C4       0.80887    0.58630    0.83756   1.00
C5       0.84324    0.57935    0.85664   1.00
H2       0.81079    0.56220    0.86759   1.00
H2       0.85966    0.54836    0.85410   1.00
H2       0.88060    0.62314    0.86029   1.00
C3       0.74788    0.59376    0.80166   1.00
H1       0.72611    0.59587    0.78993   1.00
C3       0.78189    0.53269    0.82260   1.00
H1       0.78455    0.49372    0.82511   1.00
C2       0.75297    0.53693    0.80523   1.00
C2       0.18776    0.08342    0.87361   1.00
C3       0.19219    0.12284    0.85809   1.00
H1       0.15731    0.13256    0.85607   1.00
C3       0.23837    0.06834    0.87593   1.00
H1       0.23578    0.04002    0.88652   1.00
C4       0.24631    0.14967    0.84481   1.00
C5       0.25128    0.19451    0.82696   1.00
H2       0.22767    0.16635    0.81551   1.00
H2       0.23092    0.22139    0.83059   1.00
H2       0.29826    0.22409    0.82355   1.00
C4       0.29358    0.09396    0.86296   1.00
C5       0.35030    0.07507    0.86550   1.00
H2       0.38712    0.10953    0.87327   1.00
H2       0.33203    0.03194    0.87226   1.00
H2       0.36690    0.07199    0.85237   1.00
C6       0.29747    0.13421    0.84694   1.00
C6       0.35597    0.16098    0.83272   1.00
C4       0.35188    0.12597    0.81505   1.00
C5       0.29226    0.05735    0.81147   1.00
H2       0.25810    0.06163    0.80408   1.00
H2       0.30616    0.03057    0.80384   1.00
H2       0.27389    0.03564    0.82433   1.00
C4       0.41370    0.22256    0.83756   1.00
C5       0.42065    0.26388    0.85664   1.00
H2       0.43780    0.24858    0.86759   1.00
H2       0.45164    0.31129    0.85410   1.00
H2       0.37686    0.25745    0.86029   1.00
C3       0.40624    0.15411    0.80166   1.00
H1       0.40413    0.13023    0.78993   1.00
C3       0.46731    0.24919    0.82260   1.00
H1       0.50628    0.29082    0.82511   1.00
C2       0.46307    0.21603    0.80523   1.00
C2       0.91658    0.10433    0.87361   1.00
C3       0.87716    0.06934    0.85809   1.00
H1       0.86744    0.02474    0.85607   1.00
C3       0.93166    0.17002    0.87593   1.00
H1       0.95998    0.19575    0.88652   1.00
C4       0.85033    0.09663    0.84481   1.00
C5       0.80549    0.05676    0.82696   1.00
H2       0.83365    0.06131    0.81551   1.00
H2       0.77861    0.00952    0.83059   1.00
H2       0.77591    0.07416    0.82355   1.00
C4       0.90604    0.19961    0.86296   1.00
C5       0.92493    0.27522    0.86550   1.00
H2       0.89047    0.27758    0.87327   1.00
H2       0.96806    0.30008    0.87226   1.00
H2       0.92801    0.29490    0.85237   1.00
C6       0.86579    0.16325    0.84694   1.00
C6       0.83902    0.19498    0.83272   1.00
C4       0.87403    0.22590    0.81505   1.00
C5       0.94265    0.23490    0.81147   1.00
H2       0.93837    0.19646    0.80408   1.00
H2       0.96943    0.27558    0.80384   1.00
H2       0.96436    0.23824    0.82433   1.00
C4       0.77744    0.19113    0.83756   1.00
C5       0.73612    0.15676    0.85664   1.00
H2       0.75142    0.18921    0.86759   1.00
H2       0.68871    0.14034    0.85410   1.00
H2       0.74255    0.11940    0.86029   1.00
C3       0.84589    0.25212    0.80166   1.00
H1       0.86977    0.27389    0.78993   1.00
C3       0.75081    0.21811    0.82260   1.00
H1       0.70918    0.21545    0.82511   1.00
C2       0.78397    0.24703    0.80523   1.00
C2       0.14558    0.56233    0.29305   1.00
C3       0.14115    0.59732    0.30857   1.00
H1       0.17603    0.64192    0.31059   1.00
C3       0.09497    0.49664    0.29073   1.00
H1       0.09756    0.47091    0.28014   1.00
C4       0.08703    0.57003    0.32185   1.00
C5       0.08206    0.60990    0.33970   1.00
H2       0.10567    0.60535    0.35115   1.00
H2       0.10242    0.65714    0.33607   1.00
H2       0.03508    0.59250    0.34311   1.00
C4       0.03976    0.46705    0.30370   1.00
C5       0.98304    0.39144    0.30116   1.00
H2       0.94622    0.38908    0.29339   1.00
H2       0.00131    0.36658    0.29440   1.00
H2       0.96644    0.37176    0.31429   1.00
C6       0.03587    0.50341    0.31972   1.00
C6       0.97737    0.47168    0.33394   1.00
C4       0.98146    0.44076    0.35161   1.00
C5       0.04108    0.43176    0.35519   1.00
H2       0.07524    0.47020    0.36258   1.00
H2       0.02718    0.39108    0.36282   1.00
H2       0.05945    0.42842    0.34233   1.00
C4       0.91964    0.47553    0.32910   1.00
C5       0.91269    0.50990    0.31002   1.00
H2       0.89554    0.47745    0.29907   1.00
H2       0.88170    0.52632    0.31256   1.00
H2       0.95648    0.54726    0.30637   1.00
C3       0.92710    0.41454    0.36500   1.00
H1       0.92921    0.39277    0.37673   1.00
C3       0.86603    0.44855    0.34406   1.00
H1       0.82706    0.45121    0.34155   1.00
C2       0.87027    0.41963    0.36143   1.00
C2       0.41676    0.85442    0.29305   1.00
C3       0.45618    0.85885    0.30857   1.00
H1       0.46590    0.82397    0.31059   1.00
C3       0.40168    0.90503    0.29073   1.00
H1       0.37336    0.90244    0.28014   1.00
C4       0.48301    0.91297    0.32185   1.00
C5       0.52785    0.91794    0.33970   1.00
H2       0.49969    0.89433    0.35115   1.00
H2       0.55473    0.89758    0.33607   1.00
H2       0.55743    0.96492    0.34311   1.00
C4       0.42730    0.96024    0.30370   1.00
C5       0.40841    0.01696    0.30116   1.00
H2       0.44287    0.05378    0.29339   1.00
H2       0.36528    0.99869    0.29440   1.00
H2       0.40533    0.03356    0.31429   1.00
C6       0.46755    0.96413    0.31972   1.00
C6       0.49432    0.02263    0.33394   1.00
C4       0.45931    0.01854    0.35161   1.00
C5       0.39069    0.95892    0.35519   1.00
H2       0.39497    0.92476    0.36258   1.00
H2       0.36391    0.97282    0.36282   1.00
H2       0.36898    0.94055    0.34233   1.00
C4       0.55590    0.08036    0.32910   1.00
C5       0.59722    0.08731    0.31002   1.00
H2       0.58192    0.10446    0.29907   1.00
H2       0.64463    0.11830    0.31256   1.00
H2       0.59079    0.04352    0.30637   1.00
C3       0.48745    0.07290    0.36500   1.00
H1       0.46357    0.07079    0.37673   1.00
C3       0.58253    0.13397    0.34406   1.00
H1       0.62416    0.17294    0.34155   1.00
C2       0.54937    0.12973    0.36143   1.00
C2       0.43767    0.58324    0.29305   1.00
C3       0.40268    0.54382    0.30857   1.00
H1       0.35808    0.53410    0.31059   1.00
C3       0.50336    0.59832    0.29073   1.00
H1       0.52909    0.62664    0.28014   1.00
C4       0.42997    0.51699    0.32185   1.00
C5       0.39010    0.47215    0.33970   1.00
H2       0.39465    0.50031    0.35115   1.00
H2       0.34286    0.44527    0.33607   1.00
H2       0.40750    0.44257    0.34311   1.00
C4       0.53295    0.57270    0.30370   1.00
C5       0.60856    0.59159    0.30116   1.00
H2       0.61092    0.55713    0.29339   1.00
H2       0.63342    0.63472    0.29440   1.00
H2       0.62824    0.59467    0.31429   1.00
C6       0.49659    0.53245    0.31972   1.00
C6       0.52832    0.50568    0.33394   1.00
C4       0.55924    0.54069    0.35161   1.00
C5       0.56824    0.60931    0.35519   1.00
H2       0.52980    0.60503    0.36258   1.00
H2       0.60892    0.63609    0.36282   1.00
H2       0.57158    0.63102    0.34233   1.00
C4       0.52447    0.44410    0.32910   1.00
C5       0.49010    0.40278    0.31002   1.00
H2       0.52255    0.41808    0.29907   1.00
H2       0.47368    0.35537    0.31256   1.00
H2       0.45274    0.40921    0.30637   1.00
C3       0.58546    0.51255    0.36500   1.00
H1       0.60723    0.53643    0.37673   1.00
C3       0.55145    0.41747    0.34406   1.00
H1       0.54879    0.37584    0.34155   1.00
C2       0.58037    0.45063    0.36143   1.00
C2       0.10433    0.18776    0.12639   1.00
C3       0.06934    0.19219    0.14191   1.00
H1       0.02474    0.15731    0.14393   1.00
C3       0.17002    0.23837    0.12407   1.00
H1       0.19575    0.23578    0.11348   1.00
C4       0.09663    0.24631    0.15519   1.00
C5       0.05676    0.25128    0.17304   1.00
H2       0.06131    0.22767    0.18449   1.00
H2       0.00952    0.23092    0.16941   1.00
H2       0.07416    0.29826    0.17645   1.00
C4       0.19961    0.29358    0.13704   1.00
C5       0.27522    0.35030    0.13450   1.00
H2       0.27758    0.38712    0.12673   1.00
H2       0.30008    0.33203    0.12774   1.00
H2       0.29490    0.36690    0.14763   1.00
C6       0.16325    0.29747    0.15306   1.00
C6       0.19498    0.35597    0.16728   1.00
C4       0.22590    0.35188    0.18495   1.00
C5       0.23490    0.29226    0.18853   1.00
H2       0.19646    0.25810    0.19592   1.00
H2       0.27558    0.30616    0.19616   1.00
H2       0.23824    0.27389    0.17567   1.00
C4       0.19113    0.41370    0.16244   1.00
C5       0.15676    0.42065    0.14336   1.00
H2       0.18921    0.43780    0.13241   1.00
H2       0.14034    0.45164    0.14590   1.00
H2       0.11940    0.37686    0.13971   1.00
C3       0.25212    0.40624    0.19834   1.00
H1       0.27389    0.40413    0.21007   1.00
C3       0.21811    0.46731    0.17740   1.00
H1       0.21545    0.50628    0.17489   1.00
C2       0.24703    0.46307    0.19477   1.00
C2       0.81224    0.91658    0.12639   1.00
C3       0.80781    0.87716    0.14191   1.00
H1       0.84269    0.86744    0.14393   1.00
C3       0.76163    0.93166    0.12407   1.00
H1       0.76422    0.95998    0.11348   1.00
C4       0.75369    0.85033    0.15519   1.00
C5       0.74872    0.80549    0.17304   1.00
H2       0.77233    0.83365    0.18449   1.00
H2       0.76908    0.77861    0.16941   1.00
H2       0.70174    0.77591    0.17645   1.00
C4       0.70642    0.90604    0.13704   1.00
C5       0.64970    0.92493    0.13450   1.00
H2       0.61288    0.89047    0.12673   1.00
H2       0.66797    0.96806    0.12774   1.00
H2       0.63310    0.92801    0.14763   1.00
C6       0.70253    0.86579    0.15306   1.00
C6       0.64403    0.83902    0.16728   1.00
C4       0.64812    0.87403    0.18495   1.00
C5       0.70774    0.94265    0.18853   1.00
H2       0.74190    0.93837    0.19592   1.00
H2       0.69384    0.96943    0.19616   1.00
H2       0.72611    0.96436    0.17567   1.00
C4       0.58630    0.77744    0.16244   1.00
C5       0.57935    0.73612    0.14336   1.00
H2       0.56220    0.75142    0.13241   1.00
H2       0.54836    0.68871    0.14590   1.00
H2       0.62314    0.74255    0.13971   1.00
C3       0.59376    0.84589    0.19834   1.00
H1       0.59587    0.86977    0.21007   1.00
C3       0.53269    0.75081    0.17740   1.00
H1       0.49372    0.70918    0.17489   1.00
C2       0.53693    0.78397    0.19477   1.00
C2       0.08342    0.89567    0.12639   1.00
C3       0.12284    0.93066    0.14191   1.00
H1       0.13256    0.97526    0.14393   1.00
C3       0.06834    0.82998    0.12407   1.00
H1       0.04002    0.80425    0.11348   1.00
C4       0.14967    0.90337    0.15519   1.00
C5       0.19451    0.94324    0.17304   1.00
H2       0.16635    0.93869    0.18449   1.00
H2       0.22139    0.99048    0.16941   1.00
H2       0.22409    0.92584    0.17645   1.00
C4       0.09396    0.80039    0.13704   1.00
C5       0.07507    0.72478    0.13450   1.00
H2       0.10953    0.72242    0.12673   1.00
H2       0.03194    0.69992    0.12774   1.00
H2       0.07199    0.70510    0.14763   1.00
C6       0.13421    0.83675    0.15306   1.00
C6       0.16098    0.80502    0.16728   1.00
C4       0.12597    0.77410    0.18495   1.00
C5       0.05735    0.76510    0.18853   1.00
H2       0.06163    0.80354    0.19592   1.00
H2       0.03057    0.72442    0.19616   1.00
H2       0.03564    0.76176    0.17567   1.00
C4       0.22256    0.80887    0.16244   1.00
C5       0.26388    0.84324    0.14336   1.00
H2       0.24858    0.81079    0.13241   1.00
H2       0.31129    0.85966    0.14590   1.00
H2       0.25745    0.88060    0.13971   1.00
C3       0.15411    0.74788    0.19834   1.00
H1       0.13023    0.72611    0.21007   1.00
C3       0.24919    0.78189    0.17740   1.00
H1       0.29082    0.78455    0.17489   1.00
C2       0.21603    0.75297    0.19477   1.00
C2       0.85442    0.43767    0.70695   1.00
C3       0.85885    0.40268    0.69143   1.00
H1       0.82397    0.35808    0.68941   1.00
C3       0.90503    0.50336    0.70927   1.00
H1       0.90244    0.52909    0.71986   1.00
C4       0.91297    0.42997    0.67815   1.00
C5       0.91794    0.39010    0.66030   1.00
H2       0.89433    0.39465    0.64885   1.00
H2       0.89758    0.34286    0.66393   1.00
H2       0.96492    0.40750    0.65689   1.00
C4       0.96024    0.53295    0.69630   1.00
C5       0.01696    0.60856    0.69884   1.00
H2       0.05378    0.61092    0.70661   1.00
H2       0.99869    0.63342    0.70560   1.00
H2       0.03356    0.62824    0.68571   1.00
C6       0.96413    0.49659    0.68028   1.00
C6       0.02263    0.52832    0.66606   1.00
C4       0.01854    0.55924    0.64839   1.00
C5       0.95892    0.56824    0.64481   1.00
H2       0.92476    0.52980    0.63742   1.00
H2       0.97282    0.60892    0.63718   1.00
H2       0.94055    0.57158    0.65767   1.00
C4       0.08036    0.52447    0.67090   1.00
C5       0.08731    0.49010    0.68998   1.00
H2       0.10446    0.52255    0.70093   1.00
H2       0.11830    0.47368    0.68744   1.00
H2       0.04352    0.45274    0.69363   1.00
C3       0.07290    0.58546    0.63500   1.00
H1       0.07079    0.60723    0.62327   1.00
C3       0.13397    0.55145    0.65594   1.00
H1       0.17294    0.54879    0.65845   1.00
C2       0.12973    0.58037    0.63857   1.00
C2       0.58324    0.14558    0.70695   1.00
C3       0.54382    0.14115    0.69143   1.00
H1       0.53410    0.17603    0.68941   1.00
C3       0.59832    0.09497    0.70927   1.00
H1       0.62664    0.09756    0.71986   1.00
C4       0.51699    0.08703    0.67815   1.00
C5       0.47215    0.08206    0.66030   1.00
H2       0.50031    0.10567    0.64885   1.00
H2       0.44527    0.10242    0.66393   1.00
H2       0.44257    0.03508    0.65689   1.00
C4       0.57270    0.03976    0.69630   1.00
C5       0.59159    0.98304    0.69884   1.00
H2       0.55713    0.94622    0.70661   1.00
H2       0.63472    0.00131    0.70560   1.00
H2       0.59467    0.96644    0.68571   1.00
C6       0.53245    0.03587    0.68028   1.00
C6       0.50568    0.97737    0.66606   1.00
C4       0.54069    0.98146    0.64839   1.00
C5       0.60931    0.04108    0.64481   1.00
H2       0.60503    0.07524    0.63742   1.00
H2       0.63609    0.02718    0.63718   1.00
H2       0.63102    0.05945    0.65767   1.00
C4       0.44410    0.91964    0.67090   1.00
C5       0.40278    0.91269    0.68998   1.00
H2       0.41808    0.89554    0.70093   1.00
H2       0.35537    0.88170    0.68744   1.00
H2       0.40921    0.95648    0.69363   1.00
C3       0.51255    0.92710    0.63500   1.00
H1       0.53643    0.92921    0.62327   1.00
C3       0.41747    0.86603    0.65594   1.00
H1       0.37584    0.82706    0.65845   1.00
C2       0.45063    0.87027    0.63857   1.00
C2       0.56233    0.41676    0.70695   1.00
C3       0.59732    0.45618    0.69143   1.00
H1       0.64192    0.46590    0.68941   1.00
C3       0.49664    0.40168    0.70927   1.00
H1       0.47091    0.37336    0.71986   1.00
C4       0.57003    0.48301    0.67815   1.00
C5       0.60990    0.52785    0.66030   1.00
H2       0.60535    0.49969    0.64885   1.00
H2       0.65714    0.55473    0.66393   1.00
H2       0.59250    0.55743    0.65689   1.00
C4       0.46705    0.42730    0.69630   1.00
C5       0.39144    0.40841    0.69884   1.00
H2       0.38908    0.44287    0.70661   1.00
H2       0.36658    0.36528    0.70560   1.00
H2       0.37176    0.40533    0.68571   1.00
C6       0.50341    0.46755    0.68028   1.00
C6       0.47168    0.49432    0.66606   1.00
C4       0.44076    0.45931    0.64839   1.00
C5       0.43176    0.39069    0.64481   1.00
H2       0.47020    0.39497    0.63742   1.00
H2       0.39108    0.36391    0.63718   1.00
H2       0.42842    0.36898    0.65767   1.00
C4       0.47553    0.55590    0.67090   1.00
C5       0.50990    0.59722    0.68998   1.00
H2       0.47745    0.58192    0.70093   1.00
H2       0.52632    0.64463    0.68744   1.00
H2       0.54726    0.59079    0.69363   1.00
C3       0.41454    0.48745    0.63500   1.00
H1       0.39277    0.46357    0.62327   1.00
C3       0.44855    0.58253    0.65594   1.00
H1       0.45121    0.62416    0.65845   1.00
C2       0.41963    0.54937    0.63857   1.00
C2       0.56233    0.14558    0.20695   1.00
C3       0.59732    0.14115    0.19143   1.00
H1       0.64192    0.17603    0.18941   1.00
C3       0.49664    0.09497    0.20927   1.00
H1       0.47091    0.09756    0.21986   1.00
C4       0.57003    0.08703    0.17815   1.00
C5       0.60990    0.08206    0.16030   1.00
H2       0.60535    0.10567    0.14885   1.00
H2       0.65714    0.10242    0.16393   1.00
H2       0.59250    0.03508    0.15689   1.00
C4       0.46705    0.03976    0.19630   1.00
C5       0.39144    0.98304    0.19884   1.00
H2       0.38908    0.94622    0.20661   1.00
H2       0.36658    0.00131    0.20560   1.00
H2       0.37176    0.96644    0.18571   1.00
C6       0.50341    0.03587    0.18028   1.00
C6       0.47168    0.97737    0.16606   1.00
C4       0.44076    0.98146    0.14839   1.00
C5       0.43176    0.04108    0.14481   1.00
H2       0.47020    0.07524    0.13742   1.00
H2       0.39108    0.02718    0.13718   1.00
H2       0.42842    0.05945    0.15767   1.00
C4       0.47553    0.91964    0.17090   1.00
C5       0.50990    0.91269    0.18998   1.00
H2       0.47745    0.89554    0.20093   1.00
H2       0.52632    0.88170    0.18744   1.00
H2       0.54726    0.95648    0.19363   1.00
C3       0.41454    0.92710    0.13500   1.00
H1       0.39277    0.92921    0.12327   1.00
C3       0.44855    0.86603    0.15594   1.00
H1       0.45121    0.82706    0.15845   1.00
C2       0.41963    0.87027    0.13857   1.00
C2       0.85442    0.41676    0.20695   1.00
C3       0.85885    0.45618    0.19143   1.00
H1       0.82397    0.46590    0.18941   1.00
C3       0.90503    0.40168    0.20927   1.00
H1       0.90244    0.37336    0.21986   1.00
C4       0.91297    0.48301    0.17815   1.00
C5       0.91794    0.52785    0.16030   1.00
H2       0.89433    0.49969    0.14885   1.00
H2       0.89758    0.55473    0.16393   1.00
H2       0.96492    0.55743    0.15689   1.00
C4       0.96024    0.42730    0.19630   1.00
C5       0.01696    0.40841    0.19884   1.00
H2       0.05378    0.44287    0.20661   1.00
H2       0.99869    0.36528    0.20560   1.00
H2       0.03356    0.40533    0.18571   1.00
C6       0.96413    0.46755    0.18028   1.00
C6       0.02263    0.49432    0.16606   1.00
C4       0.01854    0.45931    0.14839   1.00
C5       0.95892    0.39069    0.14481   1.00
H2       0.92476    0.39497    0.13742   1.00
H2       0.97282    0.36391    0.13718   1.00
H2       0.94055    0.36898    0.15767   1.00
C4       0.08036    0.55590    0.17090   1.00
C5       0.08731    0.59722    0.18998   1.00
H2       0.10446    0.58192    0.20093   1.00
H2       0.11830    0.64463    0.18744   1.00
H2       0.04352    0.59079    0.19363   1.00
C3       0.07290    0.48745    0.13500   1.00
H1       0.07079    0.46357    0.12327   1.00
C3       0.13397    0.58253    0.15594   1.00
H1       0.17294    0.62416    0.15845   1.00
C2       0.12973    0.54937    0.13857   1.00
C2       0.58324    0.43767    0.20695   1.00
C3       0.54382    0.40268    0.19143   1.00
H1       0.53410    0.35808    0.18941   1.00
C3       0.59832    0.50336    0.20927   1.00
H1       0.62664    0.52909    0.21986   1.00
C4       0.51699    0.42997    0.17815   1.00
C5       0.47215    0.39010    0.16030   1.00
H2       0.50031    0.39465    0.14885   1.00
H2       0.44527    0.34286    0.16393   1.00
H2       0.44257    0.40750    0.15689   1.00
C4       0.57270    0.53295    0.19630   1.00
C5       0.59159    0.60856    0.19884   1.00
H2       0.55713    0.61092    0.20661   1.00
H2       0.63472    0.63342    0.20560   1.00
H2       0.59467    0.62824    0.18571   1.00
C6       0.53245    0.49659    0.18028   1.00
C6       0.50568    0.52832    0.16606   1.00
C4       0.54069    0.55924    0.14839   1.00
C5       0.60931    0.56824    0.14481   1.00
H2       0.60503    0.52980    0.13742   1.00
H2       0.63609    0.60892    0.13718   1.00
H2       0.63102    0.57158    0.15767   1.00
C4       0.44410    0.52447    0.17090   1.00
C5       0.40278    0.49010    0.18998   1.00
H2       0.41808    0.52255    0.20093   1.00
H2       0.35537    0.47368    0.18744   1.00
H2       0.40921    0.45274    0.19363   1.00
C3       0.51255    0.58546    0.13500   1.00
H1       0.53643    0.60723    0.12327   1.00
C3       0.41747    0.55145    0.15594   1.00
H1       0.37584    0.54879    0.15845   1.00
C2       0.45063    0.58037    0.13857   1.00
C2       0.81224    0.89567    0.62639   1.00
C3       0.80781    0.93066    0.64191   1.00
H1       0.84269    0.97526    0.64393   1.00
C3       0.76163    0.82998    0.62407   1.00
H1       0.76422    0.80425    0.61348   1.00
C4       0.75369    0.90337    0.65519   1.00
C5       0.74872    0.94324    0.67304   1.00
H2       0.77233    0.93869    0.68449   1.00
H2       0.76908    0.99048    0.66941   1.00
H2       0.70174    0.92584    0.67645   1.00
C4       0.70642    0.80039    0.63704   1.00
C5       0.64970    0.72478    0.63450   1.00
H2       0.61288    0.72242    0.62673   1.00
H2       0.66797    0.69992    0.62774   1.00
H2       0.63310    0.70510    0.64763   1.00
C6       0.70253    0.83675    0.65306   1.00
C6       0.64403    0.80502    0.66728   1.00
C4       0.64812    0.77410    0.68495   1.00
C5       0.70774    0.76510    0.68853   1.00
H2       0.74190    0.80354    0.69592   1.00
H2       0.69384    0.72442    0.69616   1.00
H2       0.72611    0.76176    0.67567   1.00
C4       0.58630    0.80887    0.66244   1.00
C5       0.57935    0.84324    0.64336   1.00
H2       0.56220    0.81079    0.63241   1.00
H2       0.54836    0.85966    0.64590   1.00
H2       0.62314    0.88060    0.63971   1.00
C3       0.59376    0.74788    0.69834   1.00
H1       0.59587    0.72611    0.71007   1.00
C3       0.53269    0.78189    0.67740   1.00
H1       0.49372    0.78455    0.67489   1.00
C2       0.53693    0.75297    0.69477   1.00
C2       0.08342    0.18776    0.62639   1.00
C3       0.12284    0.19219    0.64191   1.00
H1       0.13256    0.15731    0.64393   1.00
C3       0.06834    0.23837    0.62407   1.00
H1       0.04002    0.23578    0.61348   1.00
C4       0.14967    0.24631    0.65519   1.00
C5       0.19451    0.25128    0.67304   1.00
H2       0.16635    0.22767    0.68449   1.00
H2       0.22139    0.23092    0.66941   1.00
H2       0.22409    0.29826    0.67645   1.00
C4       0.09396    0.29358    0.63704   1.00
C5       0.07507    0.35030    0.63450   1.00
H2       0.10953    0.38712    0.62673   1.00
H2       0.03194    0.33203    0.62774   1.00
H2       0.07199    0.36690    0.64763   1.00
C6       0.13421    0.29747    0.65306   1.00
C6       0.16098    0.35597    0.66728   1.00
C4       0.12597    0.35188    0.68495   1.00
C5       0.05735    0.29226    0.68853   1.00
H2       0.06163    0.25810    0.69592   1.00
H2       0.03057    0.30616    0.69616   1.00
H2       0.03564    0.27389    0.67567   1.00
C4       0.22256    0.41370    0.66244   1.00
C5       0.26388    0.42065    0.64336   1.00
H2       0.24858    0.43780    0.63241   1.00
H2       0.31129    0.45164    0.64590   1.00
H2       0.25745    0.37686    0.63971   1.00
C3       0.15411    0.40624    0.69834   1.00
H1       0.13023    0.40413    0.71007   1.00
C3       0.24919    0.46731    0.67740   1.00
H1       0.29082    0.50628    0.67489   1.00
C2       0.21603    0.46307    0.69477   1.00
C2       0.10433    0.91658    0.62639   1.00
C3       0.06934    0.87716    0.64191   1.00
H1       0.02474    0.86744    0.64393   1.00
C3       0.17002    0.93166    0.62407   1.00
H1       0.19575    0.95998    0.61348   1.00
C4       0.09663    0.85033    0.65519   1.00
C5       0.05676    0.80549    0.67304   1.00
H2       0.06131    0.83365    0.68449   1.00
H2       0.00952    0.77861    0.66941   1.00
H2       0.07416    0.77591    0.67645   1.00
C4       0.19961    0.90604    0.63704   1.00
C5       0.27522    0.92493    0.63450   1.00
H2       0.27758    0.89047    0.62673   1.00
H2       0.30008    0.96806    0.62774   1.00
H2       0.29490    0.92801    0.64763   1.00
C6       0.16325    0.86579    0.65306   1.00
C6       0.19498    0.83902    0.66728   1.00
C4       0.22590    0.87403    0.68495   1.00
C5       0.23490    0.94265    0.68853   1.00
H2       0.19646    0.93837    0.69592   1.00
H2       0.27558    0.96943    0.69616   1.00
H2       0.23824    0.96436    0.67567   1.00
C4       0.19113    0.77744    0.66244   1.00
C5       0.15676    0.73612    0.64336   1.00
H2       0.18921    0.75142    0.63241   1.00
H2       0.14034    0.68871    0.64590   1.00
H2       0.11940    0.74255    0.63971   1.00
C3       0.25212    0.84589    0.69834   1.00
H1       0.27389    0.86977    0.71007   1.00
C3       0.21811    0.75081    0.67740   1.00
H1       0.21545    0.70918    0.67489   1.00
C2       0.24703    0.78397    0.69477   1.00
