data_IRMOF10_interpen_symm_ligand2cp_label_h.

_audit_creation_method             'generated by an auxiliary program of Tobunporous'

_symmetry_space_group_name_H-M     'P 1'
_symmetry_Int_Tables_number        1
_symmetry_cell_setting             triclinic

_cell_length_a                    22.6523
_cell_length_b                    22.6523
_cell_length_c                    65.9502
_cell_angle_alpha                 90.0000
_cell_angle_beta                  90.0000
_cell_angle_gamma                 120.0000

loop_
_atom_site_label
_atom_site_fract_x
_atom_site_fract_y
_atom_site_fract_z
_atom_site_occupancy
O1       0.00000    0.00000    0.57470   1.00
Zn      0.00000    0.00000    0.54560   1.00
Zn      0.94843    0.04287    0.58357   1.00
Zn      0.09443    0.05157    0.58357   1.00
Zn      0.95713    0.90557    0.58357   1.00
O2       0.93860    0.02610    0.53560   1.00
O2       0.08750    0.06140    0.53560   1.00
O2       0.97390    0.91250    0.53560   1.00
O2       0.91300    0.07160    0.56150   1.00
O2       0.00463    0.12027    0.60077   1.00
O2       0.87413    0.98077    0.60037   1.00
O2       0.15860    0.08700    0.56150   1.00
O2       0.10663    0.12587    0.60037   1.00
O2       0.11563    0.99537    0.60077   1.00
O2       0.92840    0.84140    0.56150   1.00
O2       0.87973    0.88437    0.60077   1.00
O2       0.01923    0.89337    0.60037   1.00
C1       0.91390    0.06020    0.54330   1.00
C1       0.14630    0.08610    0.54330   1.00
C1       0.93980    0.85370    0.54330   1.00
C1       0.06663    0.14397    0.60637   1.00
C1       0.85603    0.92267    0.60637   1.00
C1       0.07733    0.93337    0.60637   1.00
O1       0.00000    0.00000    0.92530   1.00
Zn      0.00000    0.00000    0.95440   1.00
Zn      0.04287    0.94843    0.91643   1.00
Zn      0.05157    0.09443    0.91643   1.00
Zn      0.90557    0.95713    0.91643   1.00
O2       0.02610    0.93860    0.96440   1.00
O2       0.06140    0.08750    0.96440   1.00
O2       0.91250    0.97390    0.96440   1.00
O2       0.07160    0.91300    0.93850   1.00
O2       0.12027    0.00463    0.89923   1.00
O2       0.98077    0.87413    0.89963   1.00
O2       0.08700    0.15860    0.93850   1.00
O2       0.12587    0.10663    0.89963   1.00
O2       0.99537    0.11563    0.89923   1.00
O2       0.84140    0.92840    0.93850   1.00
O2       0.88437    0.87973    0.89923   1.00
O2       0.89337    0.01923    0.89963   1.00
C1       0.06020    0.91390    0.95670   1.00
C1       0.08610    0.14630    0.95670   1.00
C1       0.85370    0.93980    0.95670   1.00
C1       0.14397    0.06663    0.89363   1.00
C1       0.92267    0.85603    0.89363   1.00
C1       0.93337    0.07733    0.89363   1.00
O1       0.00000    0.00000    0.42530   1.00
Zn      0.00000    0.00000    0.45440   1.00
Zn      0.05157    0.95713    0.41643   1.00
Zn      0.90557    0.94843    0.41643   1.00
Zn      0.04287    0.09443    0.41643   1.00
O2       0.06140    0.97390    0.46440   1.00
O2       0.91250    0.93860    0.46440   1.00
O2       0.02610    0.08750    0.46440   1.00
O2       0.08700    0.92840    0.43850   1.00
O2       0.99537    0.87973    0.39923   1.00
O2       0.12587    0.01923    0.39963   1.00
O2       0.84140    0.91300    0.43850   1.00
O2       0.89337    0.87413    0.39963   1.00
O2       0.88437    0.00463    0.39923   1.00
O2       0.07160    0.15860    0.43850   1.00
O2       0.12027    0.11563    0.39923   1.00
O2       0.98077    0.10663    0.39963   1.00
C1       0.08610    0.93980    0.45670   1.00
C1       0.85370    0.91390    0.45670   1.00
C1       0.06020    0.14630    0.45670   1.00
C1       0.93337    0.85603    0.39363   1.00
C1       0.14397    0.07733    0.39363   1.00
C1       0.92267    0.06663    0.39363   1.00
O1       0.00000    0.00000    0.07470   1.00
Zn      0.00000    0.00000    0.04560   1.00
Zn      0.95713    0.05157    0.08357   1.00
Zn      0.94843    0.90557    0.08357   1.00
Zn      0.09443    0.04287    0.08357   1.00
O2       0.97390    0.06140    0.03560   1.00
O2       0.93860    0.91250    0.03560   1.00
O2       0.08750    0.02610    0.03560   1.00
O2       0.92840    0.08700    0.06150   1.00
O2       0.87973    0.99537    0.10077   1.00
O2       0.01923    0.12587    0.10037   1.00
O2       0.91300    0.84140    0.06150   1.00
O2       0.87413    0.89337    0.10037   1.00
O2       0.00463    0.88437    0.10077   1.00
O2       0.15860    0.07160    0.06150   1.00
O2       0.11563    0.12027    0.10077   1.00
O2       0.10663    0.98077    0.10037   1.00
C1       0.93980    0.08610    0.04330   1.00
C1       0.91390    0.85370    0.04330   1.00
C1       0.14630    0.06020    0.04330   1.00
C1       0.85603    0.93337    0.10637   1.00
C1       0.07733    0.14397    0.10637   1.00
C1       0.06663    0.92267    0.10637   1.00
O1       0.66667    0.33333    0.90803   1.00
Zn      0.66667    0.33333    0.87893   1.00
Zn      0.61510    0.37620    0.91690   1.00
Zn      0.76110    0.38490    0.91690   1.00
Zn      0.62380    0.23890    0.91690   1.00
O2       0.60527    0.35943    0.86893   1.00
O2       0.75417    0.39473    0.86893   1.00
O2       0.64057    0.24583    0.86893   1.00
O2       0.57967    0.40493    0.89483   1.00
O2       0.67130    0.45360    0.93410   1.00
O2       0.54080    0.31410    0.93370   1.00
O2       0.82527    0.42033    0.89483   1.00
O2       0.77330    0.45920    0.93370   1.00
O2       0.78230    0.32870    0.93410   1.00
O2       0.59507    0.17473    0.89483   1.00
O2       0.54640    0.21770    0.93410   1.00
O2       0.68590    0.22670    0.93370   1.00
C1       0.58057    0.39353    0.87663   1.00
C1       0.81297    0.41943    0.87663   1.00
C1       0.60647    0.18703    0.87663   1.00
C1       0.73330    0.47730    0.93970   1.00
C1       0.52270    0.25600    0.93970   1.00
C1       0.74400    0.26670    0.93970   1.00
O1       0.66667    0.33333    0.25863   1.00
Zn      0.66667    0.33333    0.28773   1.00
Zn      0.70953    0.28177    0.24977   1.00
Zn      0.71823    0.42777    0.24977   1.00
Zn      0.57223    0.29047    0.24977   1.00
O2       0.69277    0.27193    0.29773   1.00
O2       0.72807    0.42083    0.29773   1.00
O2       0.57917    0.30723    0.29773   1.00
O2       0.73827    0.24633    0.27183   1.00
O2       0.78693    0.33797    0.23257   1.00
O2       0.64743    0.20747    0.23297   1.00
O2       0.75367    0.49193    0.27183   1.00
O2       0.79253    0.43997    0.23297   1.00
O2       0.66203    0.44897    0.23257   1.00
O2       0.50807    0.26173    0.27183   1.00
O2       0.55103    0.21307    0.23257   1.00
O2       0.56003    0.35257    0.23297   1.00
C1       0.72687    0.24723    0.29003   1.00
C1       0.75277    0.47963    0.29003   1.00
C1       0.52037    0.27313    0.29003   1.00
C1       0.81063    0.39997    0.22697   1.00
C1       0.58933    0.18937    0.22697   1.00
C1       0.60003    0.41067    0.22697   1.00
O1       0.66667    0.33333    0.75863   1.00
Zn      0.66667    0.33333    0.78773   1.00
Zn      0.71823    0.29047    0.74977   1.00
Zn      0.57223    0.28177    0.74977   1.00
Zn      0.70953    0.42777    0.74977   1.00
O2       0.72807    0.30723    0.79773   1.00
O2       0.57917    0.27193    0.79773   1.00
O2       0.69277    0.42083    0.79773   1.00
O2       0.75367    0.26173    0.77183   1.00
O2       0.66203    0.21307    0.73257   1.00
O2       0.79253    0.35257    0.73297   1.00
O2       0.50807    0.24633    0.77183   1.00
O2       0.56003    0.20747    0.73297   1.00
O2       0.55103    0.33797    0.73257   1.00
O2       0.73827    0.49193    0.77183   1.00
O2       0.78693    0.44897    0.73257   1.00
O2       0.64743    0.43997    0.73297   1.00
C1       0.75277    0.27313    0.79003   1.00
C1       0.52037    0.24723    0.79003   1.00
C1       0.72687    0.47963    0.79003   1.00
C1       0.60003    0.18937    0.72697   1.00
C1       0.81063    0.41067    0.72697   1.00
C1       0.58933    0.39997    0.72697   1.00
O1       0.66667    0.33333    0.40803   1.00
Zn      0.66667    0.33333    0.37893   1.00
Zn      0.62380    0.38490    0.41690   1.00
Zn      0.61510    0.23890    0.41690   1.00
Zn      0.76110    0.37620    0.41690   1.00
O2       0.64057    0.39473    0.36893   1.00
O2       0.60527    0.24583    0.36893   1.00
O2       0.75417    0.35943    0.36893   1.00
O2       0.59507    0.42033    0.39483   1.00
O2       0.54640    0.32870    0.43410   1.00
O2       0.68590    0.45920    0.43370   1.00
O2       0.57967    0.17473    0.39483   1.00
O2       0.54080    0.22670    0.43370   1.00
O2       0.67130    0.21770    0.43410   1.00
O2       0.82527    0.40493    0.39483   1.00
O2       0.78230    0.45360    0.43410   1.00
O2       0.77330    0.31410    0.43370   1.00
C1       0.60647    0.41943    0.37663   1.00
C1       0.58057    0.18703    0.37663   1.00
C1       0.81297    0.39353    0.37663   1.00
C1       0.52270    0.26670    0.43970   1.00
C1       0.74400    0.47730    0.43970   1.00
C1       0.73330    0.25600    0.43970   1.00
O1       0.33333    0.66667    0.24137   1.00
Zn      0.33333    0.66667    0.21227   1.00
Zn      0.28177    0.70953    0.25023   1.00
Zn      0.42777    0.71823    0.25023   1.00
Zn      0.29047    0.57223    0.25023   1.00
O2       0.27193    0.69277    0.20227   1.00
O2       0.42083    0.72807    0.20227   1.00
O2       0.30723    0.57917    0.20227   1.00
O2       0.24633    0.73827    0.22817   1.00
O2       0.33797    0.78693    0.26743   1.00
O2       0.20747    0.64743    0.26703   1.00
O2       0.49193    0.75367    0.22817   1.00
O2       0.43997    0.79253    0.26703   1.00
O2       0.44897    0.66203    0.26743   1.00
O2       0.26173    0.50807    0.22817   1.00
O2       0.21307    0.55103    0.26743   1.00
O2       0.35257    0.56003    0.26703   1.00
C1       0.24723    0.72687    0.20997   1.00
C1       0.47963    0.75277    0.20997   1.00
C1       0.27313    0.52037    0.20997   1.00
C1       0.39997    0.81063    0.27303   1.00
C1       0.18937    0.58933    0.27303   1.00
C1       0.41067    0.60003    0.27303   1.00
O1       0.33333    0.66667    0.59197   1.00
Zn      0.33333    0.66667    0.62107   1.00
Zn      0.37620    0.61510    0.58310   1.00
Zn      0.38490    0.76110    0.58310   1.00
Zn      0.23890    0.62380    0.58310   1.00
O2       0.35943    0.60527    0.63107   1.00
O2       0.39473    0.75417    0.63107   1.00
O2       0.24583    0.64057    0.63107   1.00
O2       0.40493    0.57967    0.60517   1.00
O2       0.45360    0.67130    0.56590   1.00
O2       0.31410    0.54080    0.56630   1.00
O2       0.42033    0.82527    0.60517   1.00
O2       0.45920    0.77330    0.56630   1.00
O2       0.32870    0.78230    0.56590   1.00
O2       0.17473    0.59507    0.60517   1.00
O2       0.21770    0.54640    0.56590   1.00
O2       0.22670    0.68590    0.56630   1.00
C1       0.39353    0.58057    0.62337   1.00
C1       0.41943    0.81297    0.62337   1.00
C1       0.18703    0.60647    0.62337   1.00
C1       0.47730    0.73330    0.56030   1.00
C1       0.25600    0.52270    0.56030   1.00
C1       0.26670    0.74400    0.56030   1.00
O1       0.33333    0.66667    0.09197   1.00
Zn      0.33333    0.66667    0.12107   1.00
Zn      0.38490    0.62380    0.08310   1.00
Zn      0.23890    0.61510    0.08310   1.00
Zn      0.37620    0.76110    0.08310   1.00
O2       0.39473    0.64057    0.13107   1.00
O2       0.24583    0.60527    0.13107   1.00
O2       0.35943    0.75417    0.13107   1.00
O2       0.42033    0.59507    0.10517   1.00
O2       0.32870    0.54640    0.06590   1.00
O2       0.45920    0.68590    0.06630   1.00
O2       0.17473    0.57967    0.10517   1.00
O2       0.22670    0.54080    0.06630   1.00
O2       0.21770    0.67130    0.06590   1.00
O2       0.40493    0.82527    0.10517   1.00
O2       0.45360    0.78230    0.06590   1.00
O2       0.31410    0.77330    0.06630   1.00
C1       0.41943    0.60647    0.12337   1.00
C1       0.18703    0.58057    0.12337   1.00
C1       0.39353    0.81297    0.12337   1.00
C1       0.26670    0.52270    0.06030   1.00
C1       0.47730    0.74400    0.06030   1.00
C1       0.25600    0.73330    0.06030   1.00
O1       0.33333    0.66667    0.74137   1.00
Zn      0.33333    0.66667    0.71227   1.00
Zn      0.29047    0.71823    0.75023   1.00
Zn      0.28177    0.57223    0.75023   1.00
Zn      0.42777    0.70953    0.75023   1.00
O2       0.30723    0.72807    0.70227   1.00
O2       0.27193    0.57917    0.70227   1.00
O2       0.42083    0.69277    0.70227   1.00
O2       0.26173    0.75367    0.72817   1.00
O2       0.21307    0.66203    0.76743   1.00
O2       0.35257    0.79253    0.76703   1.00
O2       0.24633    0.50807    0.72817   1.00
O2       0.20747    0.56003    0.76703   1.00
O2       0.33797    0.55103    0.76743   1.00
O2       0.49193    0.73827    0.72817   1.00
O2       0.44897    0.78693    0.76743   1.00
O2       0.43997    0.64743    0.76703   1.00
C1       0.27313    0.75277    0.70997   1.00
C1       0.24723    0.52037    0.70997   1.00
C1       0.47963    0.72687    0.70997   1.00
C1       0.18937    0.60003    0.77303   1.00
C1       0.41067    0.81063    0.77303   1.00
C1       0.39997    0.58933    0.77303   1.00
C2       0.77830    0.53624    0.45466   1.00
C3       0.75206    0.57626    0.45814   1.00
H1       0.71405    0.56908    0.45076   1.00
C3       0.83267    0.54642    0.46600   1.00
H1       0.85121    0.51834    0.46403   1.00
C3a      0.77881    0.62779    0.47229   1.00
H1       0.76035    0.65568    0.47478   1.00
C3b      0.86113    0.59739    0.48041   1.00
H1       0.89776    0.60344    0.48831   1.00
C6       0.83348    0.63809    0.48396   1.00
C6       0.86297    0.69220    0.49964   1.00
C3c      0.83715    0.67930    0.51921   1.00
H1       0.80480    0.63522    0.52300   1.00
C3d      0.91581    0.75592    0.49386   1.00
H1       0.93390    0.76652    0.48084   1.00
C3       0.86375    0.73192    0.53320   1.00
H1       0.84730    0.72319    0.54645   1.00
C3       0.93948    0.80831    0.50918   1.00
H1       0.97397    0.85191    0.50581   1.00
C2       0.91370    0.79640    0.52810   1.00
C2       0.46376    0.24206    0.45466   1.00
C3       0.42374    0.17580    0.45814   1.00
H1       0.43092    0.14497    0.45076   1.00
C3       0.45358    0.28625    0.46600   1.00
H1       0.48166    0.33287    0.46403   1.00
C3a      0.37221    0.15102    0.47229   1.00
H1       0.34432    0.10468    0.47478   1.00
C3b      0.40261    0.26374    0.48041   1.00
H1       0.39656    0.29432    0.48831   1.00
C6       0.36191    0.19539    0.48396   1.00
C6       0.30780    0.17077    0.49964   1.00
C3c      0.32070    0.15785    0.51921   1.00
H1       0.36478    0.16958    0.52300   1.00
C3d      0.24408    0.15989    0.49386   1.00
H1       0.23348    0.16738    0.48084   1.00
C3       0.26808    0.13183    0.53320   1.00
H1       0.27681    0.12411    0.54645   1.00
C3       0.19169    0.13117    0.50918   1.00
H1       0.14809    0.12206    0.50581   1.00
C2       0.20360    0.11730    0.52810   1.00
C2       0.75794    0.22170    0.45466   1.00
C3       0.82420    0.24794    0.45814   1.00
H1       0.85503    0.28595    0.45076   1.00
C3       0.71375    0.16733    0.46600   1.00
H1       0.66713    0.14879    0.46403   1.00
C3a      0.84898    0.22119    0.47229   1.00
H1       0.89532    0.23965    0.47478   1.00
C3b      0.73626    0.13887    0.48041   1.00
H1       0.70568    0.10224    0.48831   1.00
C6       0.80461    0.16652    0.48396   1.00
C6       0.82923    0.13703    0.49964   1.00
C3c      0.84215    0.16285    0.51921   1.00
H1       0.83042    0.19520    0.52300   1.00
C3d      0.84011    0.08419    0.49386   1.00
H1       0.83262    0.06610    0.48084   1.00
C3       0.86817    0.13625    0.53320   1.00
H1       0.87589    0.15270    0.54645   1.00
C3       0.86883    0.06052    0.50918   1.00
H1       0.87794    0.02603    0.50581   1.00
C2       0.88270    0.08630    0.52810   1.00
C2       0.53624    0.77830    0.04534   1.00
C3       0.57626    0.75206    0.04186   1.00
H1       0.56908    0.71405    0.04924   1.00
C3       0.54642    0.83267    0.03400   1.00
H1       0.51834    0.85121    0.03597   1.00
C3a      0.62779    0.77881    0.02771   1.00
H1       0.65568    0.76035    0.02522   1.00
C3b      0.59739    0.86113    0.01959   1.00
H1       0.60344    0.89776    0.01169   1.00
C6       0.63809    0.83348    0.01604   1.00
C6       0.69220    0.86297    0.00036   1.00
C3c      0.67930    0.83715    0.98079   1.00
H1       0.63522    0.80480    0.97700   1.00
C3d      0.75592    0.91581    0.00614   1.00
H1       0.76652    0.93390    0.01916   1.00
C3       0.73192    0.86375    0.96680   1.00
H1       0.72319    0.84730    0.95355   1.00
C3       0.80831    0.93948    0.99082   1.00
H1       0.85191    0.97397    0.99419   1.00
C2       0.79640    0.91370    0.97190   1.00
C2       0.24206    0.46376    0.04534   1.00
C3       0.17580    0.42374    0.04186   1.00
H1       0.14497    0.43092    0.04924   1.00
C3       0.28625    0.45358    0.03400   1.00
H1       0.33287    0.48166    0.03597   1.00
C3a      0.15102    0.37221    0.02771   1.00
H1       0.10468    0.34432    0.02522   1.00
C3b      0.26374    0.40261    0.01959   1.00
H1       0.29432    0.39656    0.01169   1.00
C6       0.19539    0.36191    0.01604   1.00
C6       0.17077    0.30780    0.00036   1.00
C3c      0.15785    0.32070    0.98079   1.00
H1       0.16958    0.36478    0.97700   1.00
C3d      0.15989    0.24408    0.00614   1.00
H1       0.16738    0.23348    0.01916   1.00
C3       0.13183    0.26808    0.96680   1.00
H1       0.12411    0.27681    0.95355   1.00
C3       0.13117    0.19169    0.99082   1.00
H1       0.12206    0.14809    0.99419   1.00
C2       0.11730    0.20360    0.97190   1.00
C2       0.22170    0.75794    0.04534   1.00
C3       0.24794    0.82420    0.04186   1.00
H1       0.28595    0.85503    0.04924   1.00
C3       0.16733    0.71375    0.03400   1.00
H1       0.14879    0.66713    0.03597   1.00
C3a      0.22119    0.84898    0.02771   1.00
H1       0.23965    0.89532    0.02522   1.00
C3b      0.13887    0.73626    0.01959   1.00
H1       0.10224    0.70568    0.01169   1.00
C6       0.16652    0.80461    0.01604   1.00
C6       0.13703    0.82923    0.00036   1.00
C3c      0.16285    0.84215    0.98079   1.00
H1       0.19520    0.83042    0.97700   1.00
C3d      0.08419    0.84011    0.00614   1.00
H1       0.06610    0.83262    0.01916   1.00
C3       0.13625    0.86817    0.96680   1.00
H1       0.15270    0.87589    0.95355   1.00
C3       0.06052    0.86883    0.99082   1.00
H1       0.02603    0.87794    0.99419   1.00
C2       0.08630    0.88270    0.97190   1.00
C2       0.22170    0.46376    0.54534   1.00
C3       0.24794    0.42374    0.54186   1.00
H1       0.28595    0.43092    0.54924   1.00
C3       0.16733    0.45358    0.53400   1.00
H1       0.14879    0.48166    0.53597   1.00
C3a      0.22119    0.37221    0.52771   1.00
H1       0.23965    0.34432    0.52522   1.00
C3b      0.13887    0.40261    0.51959   1.00
H1       0.10224    0.39656    0.51169   1.00
C6       0.16652    0.36191    0.51604   1.00
C6       0.13703    0.30780    0.50036   1.00
C3c      0.16285    0.32070    0.48079   1.00
H1       0.19520    0.36478    0.47700   1.00
C3d      0.08419    0.24408    0.50614   1.00
H1       0.06610    0.23348    0.51916   1.00
C3       0.13625    0.26808    0.46680   1.00
H1       0.15270    0.27681    0.45355   1.00
C3       0.06052    0.19169    0.49082   1.00
H1       0.02603    0.14809    0.49419   1.00
C2       0.08630    0.20360    0.47190   1.00
C2       0.53624    0.75794    0.54534   1.00
C3       0.57626    0.82420    0.54186   1.00
H1       0.56908    0.85503    0.54924   1.00
C3       0.54642    0.71375    0.53400   1.00
H1       0.51834    0.66713    0.53597   1.00
C3a      0.62779    0.84898    0.52771   1.00
H1       0.65568    0.89532    0.52522   1.00
C3b      0.59739    0.73626    0.51959   1.00
H1       0.60344    0.70568    0.51169   1.00
C6       0.63809    0.80461    0.51604   1.00
C6       0.69220    0.82923    0.50036   1.00
C3c      0.67930    0.84215    0.48079   1.00
H1       0.63522    0.83042    0.47700   1.00
C3d      0.75592    0.84011    0.50614   1.00
H1       0.76652    0.83262    0.51916   1.00
C3       0.73192    0.86817    0.46680   1.00
H1       0.72319    0.87589    0.45355   1.00
C3       0.80831    0.86883    0.49082   1.00
H1       0.85191    0.87794    0.49419   1.00
C2       0.79640    0.88270    0.47190   1.00
C2       0.24206    0.77830    0.54534   1.00
C3       0.17580    0.75206    0.54186   1.00
H1       0.14497    0.71405    0.54924   1.00
C3       0.28625    0.83267    0.53400   1.00
H1       0.33287    0.85121    0.53597   1.00
C3a      0.15102    0.77881    0.52771   1.00
H1       0.10468    0.76035    0.52522   1.00
C3b      0.26374    0.86113    0.51959   1.00
H1       0.29432    0.89776    0.51169   1.00
C6       0.19539    0.83348    0.51604   1.00
C6       0.17077    0.86297    0.50036   1.00
C3c      0.15785    0.83715    0.48079   1.00
H1       0.16958    0.80480    0.47700   1.00
C3d      0.15989    0.91581    0.50614   1.00
H1       0.16738    0.93390    0.51916   1.00
C3       0.13183    0.86375    0.46680   1.00
H1       0.12411    0.84730    0.45355   1.00
C3       0.13117    0.93948    0.49082   1.00
H1       0.12206    0.97397    0.49419   1.00
C2       0.11730    0.91370    0.47190   1.00
C2       0.46376    0.22170    0.95466   1.00
C3       0.42374    0.24794    0.95814   1.00
H1       0.43092    0.28595    0.95076   1.00
C3       0.45358    0.16733    0.96600   1.00
H1       0.48166    0.14879    0.96403   1.00
C3a      0.37221    0.22119    0.97229   1.00
H1       0.34432    0.23965    0.97478   1.00
C3b      0.40261    0.13887    0.98041   1.00
H1       0.39656    0.10224    0.98831   1.00
C6       0.36191    0.16652    0.98396   1.00
C6       0.30780    0.13703    0.99964   1.00
C3c      0.32070    0.16285    0.01921   1.00
H1       0.36478    0.19520    0.02300   1.00
C3d      0.24408    0.08419    0.99386   1.00
H1       0.23348    0.06610    0.98084   1.00
C3       0.26808    0.13625    0.03320   1.00
H1       0.27681    0.15270    0.04645   1.00
C3       0.19169    0.06052    0.00918   1.00
H1       0.14809    0.02603    0.00581   1.00
C2       0.20360    0.08630    0.02810   1.00
C2       0.75794    0.53624    0.95466   1.00
C3       0.82420    0.57626    0.95814   1.00
H1       0.85503    0.56908    0.95076   1.00
C3       0.71375    0.54642    0.96600   1.00
H1       0.66713    0.51834    0.96403   1.00
C3a      0.84898    0.62779    0.97229   1.00
H1       0.89532    0.65568    0.97478   1.00
C3b      0.73626    0.59739    0.98041   1.00
H1       0.70568    0.60344    0.98831   1.00
C6       0.80461    0.63809    0.98396   1.00
C6       0.82923    0.69220    0.99964   1.00
C3c      0.84215    0.67930    0.01921   1.00
H1       0.83042    0.63522    0.02300   1.00
C3d      0.84011    0.75592    0.99386   1.00
H1       0.83262    0.76652    0.98084   1.00
C3       0.86817    0.73192    0.03320   1.00
H1       0.87589    0.72319    0.04645   1.00
C3       0.86883    0.80831    0.00918   1.00
H1       0.87794    0.85191    0.00581   1.00
C2       0.88270    0.79640    0.02810   1.00
C2       0.77830    0.24206    0.95466   1.00
C3       0.75206    0.17580    0.95814   1.00
H1       0.71405    0.14497    0.95076   1.00
C3       0.83267    0.28625    0.96600   1.00
H1       0.85121    0.33287    0.96403   1.00
C3a      0.77881    0.15102    0.97229   1.00
H1       0.76035    0.10468    0.97478   1.00
C3b      0.86113    0.26374    0.98041   1.00
H1       0.89776    0.29432    0.98831   1.00
C6       0.83348    0.19539    0.98396   1.00
C6       0.86297    0.17077    0.99964   1.00
C3c      0.83715    0.15785    0.01921   1.00
H1       0.80480    0.16958    0.02300   1.00
C3d      0.91581    0.15989    0.99386   1.00
H1       0.93390    0.16738    0.98084   1.00
C3       0.86375    0.13183    0.03320   1.00
H1       0.84730    0.12411    0.04645   1.00
C3       0.93948    0.13117    0.00918   1.00
H1       0.97397    0.12206    0.00581   1.00
C2       0.91370    0.11730    0.02810   1.00
C2       0.44497    0.86957    0.78799   1.00
C3       0.41873    0.90959    0.79147   1.00
H1       0.38072    0.90241    0.78409   1.00
C3       0.49934    0.87975    0.79933   1.00
H1       0.51788    0.85167    0.79736   1.00
C3a      0.44548    0.96112    0.80562   1.00
H1       0.42702    0.98901    0.80811   1.00
C3b      0.52780    0.93072    0.81374   1.00
H1       0.56443    0.93677    0.82164   1.00
C6       0.50015    0.97142    0.81729   1.00
C6       0.52964    0.02553    0.83297   1.00
C3c      0.50382    0.01263    0.85254   1.00
H1       0.47147    -0.03145   0.85633   1.00
C3d      0.58248    0.08925    0.82719   1.00
H1       0.60057    0.09985    0.81417   1.00
C3       0.53042    0.06525    0.86653   1.00
H1       0.51397    0.05652    0.87978   1.00
C3       0.60615    0.14164    0.84251   1.00
H1       0.64064    0.18524    0.83914   1.00
C2       0.58037    0.12973    0.86143   1.00
C2       0.13043    0.57539    0.78799   1.00
C3       0.09041    0.50913    0.79147   1.00
H1       0.09759    0.47830    0.78409   1.00
C3       0.12025    0.61958    0.79933   1.00
H1       0.14833    0.66620    0.79736   1.00
C3a      0.03888    0.48435    0.80562   1.00
H1       0.01099    0.43801    0.80811   1.00
C3b      0.06928    0.59707    0.81374   1.00
H1       0.06323    0.62765    0.82164   1.00
C6       0.02858    0.52872    0.81729   1.00
C6       0.97447    0.50410    0.83297   1.00
C3c      0.98737    0.49118    0.85254   1.00
H1       1.03145    0.50291    0.85633   1.00
C3d      0.91075    0.49322    0.82719   1.00
H1       0.90015    0.50071    0.81417   1.00
C3       0.93475    0.46516    0.86653   1.00
H1       0.94348    0.45744    0.87978   1.00
C3       0.85836    0.46450    0.84251   1.00
H1       0.81476    0.45539    0.83914   1.00
C2       0.87027    0.45063    0.86143   1.00
C2       0.42461    0.55503    0.78799   1.00
C3       0.49087    0.58127    0.79147   1.00
H1       0.52170    0.61928    0.78409   1.00
C3       0.38042    0.50066    0.79933   1.00
H1       0.33380    0.48212    0.79736   1.00
C3a      0.51565    0.55452    0.80562   1.00
H1       0.56199    0.57298    0.80811   1.00
C3b      0.40293    0.47220    0.81374   1.00
H1       0.37235    0.43557    0.82164   1.00
C6       0.47128    0.49985    0.81729   1.00
C6       0.49590    0.47036    0.83297   1.00
C3c      0.50882    0.49618    0.85254   1.00
H1       0.49709    0.52853    0.85633   1.00
C3d      0.50678    0.41752    0.82719   1.00
H1       0.49929    0.39943    0.81417   1.00
C3       0.53484    0.46958    0.86653   1.00
H1       0.54256    0.48603    0.87978   1.00
C3       0.53550    0.39385    0.84251   1.00
H1       0.54461    0.35936    0.83914   1.00
C2       0.54937    0.41963    0.86143   1.00
C2       0.20291    0.11163    0.37867   1.00
C3       0.24293    0.08539    0.37519   1.00
H1       0.23575    0.04738    0.38257   1.00
C3       0.21309    0.16600    0.36733   1.00
H1       0.18501    0.18454    0.36930   1.00
C3a      0.29446    0.11214    0.36104   1.00
H1       0.32235    0.09368    0.35855   1.00
C3b      0.26406    0.19446    0.35292   1.00
H1       0.27011    0.23109    0.34502   1.00
C6       0.30476    0.16681    0.34937   1.00
C6       0.35887    0.19630    0.33369   1.00
C3c      0.34597    0.17048    0.31412   1.00
H1       0.30189    0.13813    0.31033   1.00
C3d      0.42259    0.24914    0.33947   1.00
H1       0.43319    0.26723    0.35249   1.00
C3       0.39859    0.19708    0.30013   1.00
H1       0.38986    0.18063    0.28688   1.00
C3       0.47498    0.27281    0.32415   1.00
H1       0.51858    0.30730    0.32752   1.00
C2       0.46307    0.24703    0.30523   1.00
C2       0.90873    0.79709    0.37867   1.00
C3       0.84247    0.75707    0.37519   1.00
H1       0.81164    0.76425    0.38257   1.00
C3       0.95292    0.78691    0.36733   1.00
H1       0.99954    0.81499    0.36930   1.00
C3a      0.81769    0.70554    0.36104   1.00
H1       0.77135    0.67765    0.35855   1.00
C3b      0.93041    0.73594    0.35292   1.00
H1       0.96099    0.72989    0.34502   1.00
C6       0.86206    0.69524    0.34937   1.00
C6       0.83744    0.64113    0.33369   1.00
C3c      0.82452    0.65403    0.31412   1.00
H1       0.83625    0.69811    0.31033   1.00
C3d      0.82656    0.57741    0.33947   1.00
H1       0.83405    0.56681    0.35249   1.00
C3       0.79850    0.60141    0.30013   1.00
H1       0.79078    0.61014    0.28688   1.00
C3       0.79784    0.52502    0.32415   1.00
H1       0.78873    0.48142    0.32752   1.00
C2       0.78397    0.53693    0.30523   1.00
C2       0.88837    0.09127    0.37867   1.00
C3       0.91461    0.15753    0.37519   1.00
H1       0.95262    0.18836    0.38257   1.00
C3       0.83400    0.04708    0.36733   1.00
H1       0.81546    0.00046    0.36930   1.00
C3a      0.88786    0.18231    0.36104   1.00
H1       0.90632    0.22865    0.35855   1.00
C3b      0.80554    0.06959    0.35292   1.00
H1       0.76891    0.03901    0.34502   1.00
C6       0.83319    0.13794    0.34937   1.00
C6       0.80370    0.16256    0.33369   1.00
C3c      0.82952    0.17548    0.31412   1.00
H1       0.86187    0.16375    0.31033   1.00
C3d      0.75086    0.17344    0.33947   1.00
H1       0.73277    0.16595    0.35249   1.00
C3       0.80292    0.20150    0.30013   1.00
H1       0.81937    0.20922    0.28688   1.00
C3       0.72719    0.20216    0.32415   1.00
H1       0.69270    0.21127    0.32752   1.00
C2       0.75297    0.21603    0.30523   1.00
C2       0.88837    0.79709    0.87867   1.00
C3       0.91461    0.75707    0.87519   1.00
H1       0.95262    0.76425    0.88257   1.00
C3       0.83400    0.78691    0.86733   1.00
H1       0.81546    0.81499    0.86930   1.00
C3a      0.88786    0.70554    0.86104   1.00
H1       0.90632    0.67765    0.85855   1.00
C3b      0.80554    0.73594    0.85292   1.00
H1       0.76891    0.72989    0.84502   1.00
C6       0.83319    0.69524    0.84937   1.00
C6       0.80370    0.64113    0.83369   1.00
C3c      0.82952    0.65403    0.81412   1.00
H1       0.86187    0.69811    0.81033   1.00
C3d      0.75086    0.57741    0.83947   1.00
H1       0.73277    0.56681    0.85249   1.00
C3       0.80292    0.60141    0.80013   1.00
H1       0.81937    0.61014    0.78688   1.00
C3       0.72719    0.52502    0.82415   1.00
H1       0.69270    0.48142    0.82752   1.00
C2       0.75297    0.53693    0.80523   1.00
C2       0.20291    0.09127    0.87867   1.00
C3       0.24293    0.15753    0.87519   1.00
H1       0.23575    0.18836    0.88257   1.00
C3       0.21309    0.04708    0.86733   1.00
H1       0.18501    0.00046    0.86930   1.00
C3a      0.29446    0.18231    0.86104   1.00
H1       0.32235    0.22865    0.85855   1.00
C3b      0.26406    0.06959    0.85292   1.00
H1       0.27011    0.03901    0.84502   1.00
C6       0.30476    0.13794    0.84937   1.00
C6       0.35887    0.16256    0.83369   1.00
C3c      0.34597    0.17548    0.81412   1.00
H1       0.30189    0.16375    0.81033   1.00
C3d      0.42259    0.17344    0.83947   1.00
H1       0.43319    0.16595    0.85249   1.00
C3       0.39859    0.20150    0.80013   1.00
H1       0.38986    0.20922    0.78688   1.00
C3       0.47498    0.20216    0.82415   1.00
H1       0.51858    0.21127    0.82752   1.00
C2       0.46307    0.21603    0.80523   1.00
C2       0.90873    0.11163    0.87867   1.00
C3       0.84247    0.08539    0.87519   1.00
H1       0.81164    0.04738    0.88257   1.00
C3       0.95292    0.16600    0.86733   1.00
H1       0.99954    0.18454    0.86930   1.00
C3a      0.81769    0.11214    0.86104   1.00
H1       0.77135    0.09368    0.85855   1.00
C3b      0.93041    0.19446    0.85292   1.00
H1       0.96099    0.23109    0.84502   1.00
C6       0.86206    0.16681    0.84937   1.00
C6       0.83744    0.19630    0.83369   1.00
C3c      0.82452    0.17048    0.81412   1.00
H1       0.83625    0.13813    0.81033   1.00
C3d      0.82656    0.24914    0.83947   1.00
H1       0.83405    0.26723    0.85249   1.00
C3       0.79850    0.19708    0.80013   1.00
H1       0.79078    0.18063    0.78688   1.00
C3       0.79784    0.27281    0.82415   1.00
H1       0.78873    0.30730    0.82752   1.00
C2       0.78397    0.24703    0.80523   1.00
C2       0.13043    0.55503    0.28799   1.00
C3       0.09041    0.58127    0.29147   1.00
H1       0.09759    0.61928    0.28409   1.00
C3       0.12025    0.50066    0.29933   1.00
H1       0.14833    0.48212    0.29736   1.00
C3a      0.03888    0.55452    0.30562   1.00
H1       0.01099    0.57298    0.30811   1.00
C3b      0.06928    0.47220    0.31374   1.00
H1       0.06323    0.43557    0.32164   1.00
C6       0.02858    0.49985    0.31729   1.00
C6       0.97447    0.47036    0.33297   1.00
C3c      0.98737    0.49618    0.35254   1.00
H1       1.03145    0.52853    0.35633   1.00
C3d      0.91075    0.41752    0.32719   1.00
H1       0.90015    0.39943    0.31417   1.00
C3       0.93475    0.46958    0.36653   1.00
H1       0.94348    0.48603    0.37978   1.00
C3       0.85836    0.39385    0.34251   1.00
H1       0.81476    0.35936    0.33914   1.00
C2       0.87027    0.41963    0.36143   1.00
C2       0.42461    0.86957    0.28799   1.00
C3       0.49087    0.90959    0.29147   1.00
H1       0.52170    0.90241    0.28409   1.00
C3       0.38042    0.87975    0.29933   1.00
H1       0.33380    0.85167    0.29736   1.00
C3a      0.51565    0.96112    0.30562   1.00
H1       0.56199    0.98901    0.30811   1.00
C3b      0.40293    0.93072    0.31374   1.00
H1       0.37235    0.93677    0.32164   1.00
C6       0.47128    0.97142    0.31729   1.00
C6       0.49590    0.02553    0.33297   1.00
C3c      0.50882    0.01263    0.35254   1.00
H1       0.49709    -0.03145   0.35633   1.00
C3d      0.50678    0.08925    0.32719   1.00
H1       0.49929    0.09985    0.31417   1.00
C3       0.53484    0.06525    0.36653   1.00
H1       0.54256    0.05652    0.37978   1.00
C3       0.53550    0.14164    0.34251   1.00
H1       0.54461    0.18524    0.33914   1.00
C2       0.54937    0.12973    0.36143   1.00
C2       0.44497    0.57539    0.28799   1.00
C3       0.41873    0.50913    0.29147   1.00
H1       0.38072    0.47830    0.28409   1.00
C3       0.49934    0.61958    0.29933   1.00
H1       0.51788    0.66620    0.29736   1.00
C3a      0.44548    0.48435    0.30562   1.00
H1       0.42702    0.43801    0.30811   1.00
C3b      0.52780    0.59707    0.31374   1.00
H1       0.56443    0.62765    0.32164   1.00
C6       0.50015    0.52872    0.31729   1.00
C6       0.52964    0.50410    0.33297   1.00
C3c      0.50382    0.49118    0.35254   1.00
H1       0.47147    0.50291    0.35633   1.00
C3d      0.58248    0.49322    0.32719   1.00
H1       0.60057    0.50071    0.31417   1.00
C3       0.53042    0.46516    0.36653   1.00
H1       0.51397    0.45744    0.37978   1.00
C3       0.60615    0.46450    0.34251   1.00
H1       0.64064    0.45539    0.33914   1.00
C2       0.58037    0.45063    0.36143   1.00
C2       0.11163    0.20291    0.12133   1.00
C3       0.08539    0.24293    0.12481   1.00
H1       0.04738    0.23575    0.11743   1.00
C3       0.16600    0.21309    0.13267   1.00
H1       0.18454    0.18501    0.13070   1.00
C3a      0.11214    0.29446    0.13896   1.00
H1       0.09368    0.32235    0.14145   1.00
C3b      0.19446    0.26406    0.14708   1.00
H1       0.23109    0.27011    0.15498   1.00
C6       0.16681    0.30476    0.15063   1.00
C6       0.19630    0.35887    0.16631   1.00
C3c      0.17048    0.34597    0.18588   1.00
H1       0.13813    0.30189    0.18967   1.00
C3d      0.24914    0.42259    0.16053   1.00
H1       0.26723    0.43319    0.14751   1.00
C3       0.19708    0.39859    0.19987   1.00
H1       0.18063    0.38986    0.21312   1.00
C3       0.27281    0.47498    0.17585   1.00
H1       0.30730    0.51858    0.17248   1.00
C2       0.24703    0.46307    0.19477   1.00
C2       0.79709    0.90873    0.12133   1.00
C3       0.75707    0.84247    0.12481   1.00
H1       0.76425    0.81164    0.11743   1.00
C3       0.78691    0.95292    0.13267   1.00
H1       0.81499    0.99954    0.13070   1.00
C3a      0.70554    0.81769    0.13896   1.00
H1       0.67765    0.77135    0.14145   1.00
C3b      0.73594    0.93041    0.14708   1.00
H1       0.72989    0.96099    0.15498   1.00
C6       0.69524    0.86206    0.15063   1.00
C6       0.64113    0.83744    0.16631   1.00
C3c      0.65403    0.82452    0.18588   1.00
H1       0.69811    0.83625    0.18967   1.00
C3d      0.57741    0.82656    0.16053   1.00
H1       0.56681    0.83405    0.14751   1.00
C3       0.60141    0.79850    0.19987   1.00
H1       0.61014    0.79078    0.21312   1.00
C3       0.52502    0.79784    0.17585   1.00
H1       0.48142    0.78873    0.17248   1.00
C2       0.53693    0.78397    0.19477   1.00
C2       0.09127    0.88837    0.12133   1.00
C3       0.15753    0.91461    0.12481   1.00
H1       0.18836    0.95262    0.11743   1.00
C3       0.04708    0.83400    0.13267   1.00
H1       0.00046    0.81546    0.13070   1.00
C3a      0.18231    0.88786    0.13896   1.00
H1       0.22865    0.90632    0.14145   1.00
C3b      0.06959    0.80554    0.14708   1.00
H1       0.03901    0.76891    0.15498   1.00
C6       0.13794    0.83319    0.15063   1.00
C6       0.16256    0.80370    0.16631   1.00
C3c      0.17548    0.82952    0.18588   1.00
H1       0.16375    0.86187    0.18967   1.00
C3d      0.17344    0.75086    0.16053   1.00
H1       0.16595    0.73277    0.14751   1.00
C3       0.20150    0.80292    0.19987   1.00
H1       0.20922    0.81937    0.21312   1.00
C3       0.20216    0.72719    0.17585   1.00
H1       0.21127    0.69270    0.17248   1.00
C2       0.21603    0.75297    0.19477   1.00
C2       0.86957    0.44497    0.71201   1.00
C3       0.90959    0.41873    0.70853   1.00
H1       0.90241    0.38072    0.71591   1.00
C3       0.87975    0.49934    0.70067   1.00
H1       0.85167    0.51788    0.70264   1.00
C3a      0.96112    0.44548    0.69438   1.00
H1       0.98901    0.42702    0.69189   1.00
C3b      0.93072    0.52780    0.68626   1.00
H1       0.93677    0.56443    0.67836   1.00
C6       0.97142    0.50015    0.68271   1.00
C6       0.02553    0.52964    0.66703   1.00
C3c      0.01263    0.50382    0.64746   1.00
H1       -0.03145   0.47147    0.64367   1.00
C3d      0.08925    0.58248    0.67281   1.00
H1       0.09985    0.60057    0.68583   1.00
C3       0.06525    0.53042    0.63347   1.00
H1       0.05652    0.51397    0.62022   1.00
C3       0.14164    0.60615    0.65749   1.00
H1       0.18524    0.64064    0.66086   1.00
C2       0.12973    0.58037    0.63857   1.00
C2       0.57539    0.13043    0.71201   1.00
C3       0.50913    0.09041    0.70853   1.00
H1       0.47830    0.09759    0.71591   1.00
C3       0.61958    0.12025    0.70067   1.00
H1       0.66620    0.14833    0.70264   1.00
C3a      0.48435    0.03888    0.69438   1.00
H1       0.43801    0.01099    0.69189   1.00
C3b      0.59707    0.06928    0.68626   1.00
H1       0.62765    0.06323    0.67836   1.00
C6       0.52872    0.02858    0.68271   1.00
C6       0.50410    0.97447    0.66703   1.00
C3c      0.49118    0.98737    0.64746   1.00
H1       0.50291    1.03145    0.64367   1.00
C3d      0.49322    0.91075    0.67281   1.00
H1       0.50071    0.90015    0.68583   1.00
C3       0.46516    0.93475    0.63347   1.00
H1       0.45744    0.94348    0.62022   1.00
C3       0.46450    0.85836    0.65749   1.00
H1       0.45539    0.81476    0.66086   1.00
C2       0.45063    0.87027    0.63857   1.00
C2       0.55503    0.42461    0.71201   1.00
C3       0.58127    0.49087    0.70853   1.00
H1       0.61928    0.52170    0.71591   1.00
C3       0.50066    0.38042    0.70067   1.00
H1       0.48212    0.33380    0.70264   1.00
C3a      0.55452    0.51565    0.69438   1.00
H1       0.57298    0.56199    0.69189   1.00
C3b      0.47220    0.40293    0.68626   1.00
H1       0.43557    0.37235    0.67836   1.00
C6       0.49985    0.47128    0.68271   1.00
C6       0.47036    0.49590    0.66703   1.00
C3c      0.49618    0.50882    0.64746   1.00
H1       0.52853    0.49709    0.64367   1.00
C3d      0.41752    0.50678    0.67281   1.00
H1       0.39943    0.49929    0.68583   1.00
C3       0.46958    0.53484    0.63347   1.00
H1       0.48603    0.54256    0.62022   1.00
C3       0.39385    0.53550    0.65749   1.00
H1       0.35936    0.54461    0.66086   1.00
C2       0.41963    0.54937    0.63857   1.00
C2       0.55503    0.13043    0.21201   1.00
C3       0.58127    0.09041    0.20853   1.00
H1       0.61928    0.09759    0.21591   1.00
C3       0.50066    0.12025    0.20067   1.00
H1       0.48212    0.14833    0.20264   1.00
C3a      0.55452    0.03888    0.19438   1.00
H1       0.57298    0.01099    0.19189   1.00
C3b      0.47220    0.06928    0.18626   1.00
H1       0.43557    0.06323    0.17836   1.00
C6       0.49985    0.02858    0.18271   1.00
C6       0.47036    0.97447    0.16703   1.00
C3c      0.49618    0.98737    0.14746   1.00
H1       0.52853    1.03145    0.14367   1.00
C3d      0.41752    0.91075    0.17281   1.00
H1       0.39943    0.90015    0.18583   1.00
C3       0.46958    0.93475    0.13347   1.00
H1       0.48603    0.94348    0.12022   1.00
C3       0.39385    0.85836    0.15749   1.00
H1       0.35936    0.81476    0.16086   1.00
C2       0.41963    0.87027    0.13857   1.00
C2       0.86957    0.42461    0.21201   1.00
C3       0.90959    0.49087    0.20853   1.00
H1       0.90241    0.52170    0.21591   1.00
C3       0.87975    0.38042    0.20067   1.00
H1       0.85167    0.33380    0.20264   1.00
C3a      0.96112    0.51565    0.19438   1.00
H1       0.98901    0.56199    0.19189   1.00
C3b      0.93072    0.40293    0.18626   1.00
H1       0.93677    0.37235    0.17836   1.00
C6       0.97142    0.47128    0.18271   1.00
C6       0.02553    0.49590    0.16703   1.00
C3c      0.01263    0.50882    0.14746   1.00
H1       -0.03145   0.49709    0.14367   1.00
C3d      0.08925    0.50678    0.17281   1.00
H1       0.09985    0.49929    0.18583   1.00
C3       0.06525    0.53484    0.13347   1.00
H1       0.05652    0.54256    0.12022   1.00
C3       0.14164    0.53550    0.15749   1.00
H1       0.18524    0.54461    0.16086   1.00
C2       0.12973    0.54937    0.13857   1.00
C2       0.57539    0.44497    0.21201   1.00
C3       0.50913    0.41873    0.20853   1.00
H1       0.47830    0.38072    0.21591   1.00
C3       0.61958    0.49934    0.20067   1.00
H1       0.66620    0.51788    0.20264   1.00
C3a      0.48435    0.44548    0.19438   1.00
H1       0.43801    0.42702    0.19189   1.00
C3b      0.59707    0.52780    0.18626   1.00
H1       0.62765    0.56443    0.17836   1.00
C6       0.52872    0.50015    0.18271   1.00
C6       0.50410    0.52964    0.16703   1.00
C3c      0.49118    0.50382    0.14746   1.00
H1       0.50291    0.47147    0.14367   1.00
C3d      0.49322    0.58248    0.17281   1.00
H1       0.50071    0.60057    0.18583   1.00
C3       0.46516    0.53042    0.13347   1.00
H1       0.45744    0.51397    0.12022   1.00
C3       0.46450    0.60615    0.15749   1.00
H1       0.45539    0.64064    0.16086   1.00
C2       0.45063    0.58037    0.13857   1.00
C2       0.79709    0.88837    0.62133   1.00
C3       0.75707    0.91461    0.62481   1.00
H1       0.76425    0.95262    0.61743   1.00
C3       0.78691    0.83400    0.63267   1.00
H1       0.81499    0.81546    0.63070   1.00
C3a      0.70554    0.88786    0.63896   1.00
H1       0.67765    0.90632    0.64145   1.00
C3b      0.73594    0.80554    0.64708   1.00
H1       0.72989    0.76891    0.65498   1.00
C6       0.69524    0.83319    0.65063   1.00
C6       0.64113    0.80370    0.66631   1.00
C3c      0.65403    0.82952    0.68588   1.00
H1       0.69811    0.86187    0.68967   1.00
C3d      0.57741    0.75086    0.66053   1.00
H1       0.56681    0.73277    0.64751   1.00
C3       0.60141    0.80292    0.69987   1.00
H1       0.61014    0.81937    0.71312   1.00
C3       0.52502    0.72719    0.67585   1.00
H1       0.48142    0.69270    0.67248   1.00
C2       0.53693    0.75297    0.69477   1.00
C2       0.09127    0.20291    0.62133   1.00
C3       0.15753    0.24293    0.62481   1.00
H1       0.18836    0.23575    0.61743   1.00
C3       0.04708    0.21309    0.63267   1.00
H1       0.00046    0.18501    0.63070   1.00
C3a      0.18231    0.29446    0.63896   1.00
H1       0.22865    0.32235    0.64145   1.00
C3b      0.06959    0.26406    0.64708   1.00
H1       0.03901    0.27011    0.65498   1.00
C6       0.13794    0.30476    0.65063   1.00
C6       0.16256    0.35887    0.66631   1.00
C3c      0.17548    0.34597    0.68588   1.00
H1       0.16375    0.30189    0.68967   1.00
C3d      0.17344    0.42259    0.66053   1.00
H1       0.16595    0.43319    0.64751   1.00
C3       0.20150    0.39859    0.69987   1.00
H1       0.20922    0.38986    0.71312   1.00
C3       0.20216    0.47498    0.67585   1.00
H1       0.21127    0.51858    0.67248   1.00
C2       0.21603    0.46307    0.69477   1.00
C2       0.11163    0.90873    0.62133   1.00
C3       0.08539    0.84247    0.62481   1.00
H1       0.04738    0.81164    0.61743   1.00
C3       0.16600    0.95292    0.63267   1.00
H1       0.18454    0.99954    0.63070   1.00
C3a      0.11214    0.81769    0.63896   1.00
H1       0.09368    0.77135    0.64145   1.00
C3b      0.19446    0.93041    0.64708   1.00
H1       0.23109    0.96099    0.65498   1.00
C6       0.16681    0.86206    0.65063   1.00
C6       0.19630    0.83744    0.66631   1.00
C3c      0.17048    0.82452    0.68588   1.00
H1       0.13813    0.83625    0.68967   1.00
C3d      0.24914    0.82656    0.66053   1.00
H1       0.26723    0.83405    0.64751   1.00
C3       0.19708    0.79850    0.69987   1.00
H1       0.18063    0.79078    0.71312   1.00
C3       0.27281    0.79784    0.67585   1.00
H1       0.30730    0.78873    0.67248   1.00
C2       0.24703    0.78397    0.69477   1.00
