data_IRMOF10_interpen_symm_ligand2cp_label_f.

_audit_creation_method             'generated by an auxiliary program of Tobunporous'

_symmetry_space_group_name_H-M     'P 1'
_symmetry_Int_Tables_number        1
_symmetry_cell_setting             triclinic

_cell_length_a                    22.6523
_cell_length_b                    22.6523
_cell_length_c                    65.9502
_cell_angle_alpha                 90.0000
_cell_angle_beta                  90.0000
_cell_angle_gamma                 120.0000

loop_
_atom_site_label
_atom_site_fract_x
_atom_site_fract_y
_atom_site_fract_z
_atom_site_occupancy
O1       0.00000    0.00000    0.57470   1.00
Zn      0.00000    0.00000    0.54560   1.00
Zn      0.94843    0.04287    0.58357   1.00
Zn      0.09443    0.05157    0.58357   1.00
Zn      0.95713    0.90557    0.58357   1.00
O2       0.93860    0.02610    0.53560   1.00
O2       0.08750    0.06140    0.53560   1.00
O2       0.97390    0.91250    0.53560   1.00
O2       0.91300    0.07160    0.56150   1.00
O2       0.00463    0.12027    0.60077   1.00
O2       0.87413    0.98077    0.60037   1.00
O2       0.15860    0.08700    0.56150   1.00
O2       0.10663    0.12587    0.60037   1.00
O2       0.11563    0.99537    0.60077   1.00
O2       0.92840    0.84140    0.56150   1.00
O2       0.87973    0.88437    0.60077   1.00
O2       0.01923    0.89337    0.60037   1.00
C1       0.91390    0.06020    0.54330   1.00
C1       0.14630    0.08610    0.54330   1.00
C1       0.93980    0.85370    0.54330   1.00
C1       0.06663    0.14397    0.60637   1.00
C1       0.85603    0.92267    0.60637   1.00
C1       0.07733    0.93337    0.60637   1.00
O1       0.00000    0.00000    0.92530   1.00
Zn      0.00000    0.00000    0.95440   1.00
Zn      0.04287    0.94843    0.91643   1.00
Zn      0.05157    0.09443    0.91643   1.00
Zn      0.90557    0.95713    0.91643   1.00
O2       0.02610    0.93860    0.96440   1.00
O2       0.06140    0.08750    0.96440   1.00
O2       0.91250    0.97390    0.96440   1.00
O2       0.07160    0.91300    0.93850   1.00
O2       0.12027    0.00463    0.89923   1.00
O2       0.98077    0.87413    0.89963   1.00
O2       0.08700    0.15860    0.93850   1.00
O2       0.12587    0.10663    0.89963   1.00
O2       0.99537    0.11563    0.89923   1.00
O2       0.84140    0.92840    0.93850   1.00
O2       0.88437    0.87973    0.89923   1.00
O2       0.89337    0.01923    0.89963   1.00
C1       0.06020    0.91390    0.95670   1.00
C1       0.08610    0.14630    0.95670   1.00
C1       0.85370    0.93980    0.95670   1.00
C1       0.14397    0.06663    0.89363   1.00
C1       0.92267    0.85603    0.89363   1.00
C1       0.93337    0.07733    0.89363   1.00
O1       0.00000    0.00000    0.42530   1.00
Zn      0.00000    0.00000    0.45440   1.00
Zn      0.05157    0.95713    0.41643   1.00
Zn      0.90557    0.94843    0.41643   1.00
Zn      0.04287    0.09443    0.41643   1.00
O2       0.06140    0.97390    0.46440   1.00
O2       0.91250    0.93860    0.46440   1.00
O2       0.02610    0.08750    0.46440   1.00
O2       0.08700    0.92840    0.43850   1.00
O2       0.99537    0.87973    0.39923   1.00
O2       0.12587    0.01923    0.39963   1.00
O2       0.84140    0.91300    0.43850   1.00
O2       0.89337    0.87413    0.39963   1.00
O2       0.88437    0.00463    0.39923   1.00
O2       0.07160    0.15860    0.43850   1.00
O2       0.12027    0.11563    0.39923   1.00
O2       0.98077    0.10663    0.39963   1.00
C1       0.08610    0.93980    0.45670   1.00
C1       0.85370    0.91390    0.45670   1.00
C1       0.06020    0.14630    0.45670   1.00
C1       0.93337    0.85603    0.39363   1.00
C1       0.14397    0.07733    0.39363   1.00
C1       0.92267    0.06663    0.39363   1.00
O1       0.00000    0.00000    0.07470   1.00
Zn      0.00000    0.00000    0.04560   1.00
Zn      0.95713    0.05157    0.08357   1.00
Zn      0.94843    0.90557    0.08357   1.00
Zn      0.09443    0.04287    0.08357   1.00
O2       0.97390    0.06140    0.03560   1.00
O2       0.93860    0.91250    0.03560   1.00
O2       0.08750    0.02610    0.03560   1.00
O2       0.92840    0.08700    0.06150   1.00
O2       0.87973    0.99537    0.10077   1.00
O2       0.01923    0.12587    0.10037   1.00
O2       0.91300    0.84140    0.06150   1.00
O2       0.87413    0.89337    0.10037   1.00
O2       0.00463    0.88437    0.10077   1.00
O2       0.15860    0.07160    0.06150   1.00
O2       0.11563    0.12027    0.10077   1.00
O2       0.10663    0.98077    0.10037   1.00
C1       0.93980    0.08610    0.04330   1.00
C1       0.91390    0.85370    0.04330   1.00
C1       0.14630    0.06020    0.04330   1.00
C1       0.85603    0.93337    0.10637   1.00
C1       0.07733    0.14397    0.10637   1.00
C1       0.06663    0.92267    0.10637   1.00
O1       0.66667    0.33333    0.90803   1.00
Zn      0.66667    0.33333    0.87893   1.00
Zn      0.61510    0.37620    0.91690   1.00
Zn      0.76110    0.38490    0.91690   1.00
Zn      0.62380    0.23890    0.91690   1.00
O2       0.60527    0.35943    0.86893   1.00
O2       0.75417    0.39473    0.86893   1.00
O2       0.64057    0.24583    0.86893   1.00
O2       0.57967    0.40493    0.89483   1.00
O2       0.67130    0.45360    0.93410   1.00
O2       0.54080    0.31410    0.93370   1.00
O2       0.82527    0.42033    0.89483   1.00
O2       0.77330    0.45920    0.93370   1.00
O2       0.78230    0.32870    0.93410   1.00
O2       0.59507    0.17473    0.89483   1.00
O2       0.54640    0.21770    0.93410   1.00
O2       0.68590    0.22670    0.93370   1.00
C1       0.58057    0.39353    0.87663   1.00
C1       0.81297    0.41943    0.87663   1.00
C1       0.60647    0.18703    0.87663   1.00
C1       0.73330    0.47730    0.93970   1.00
C1       0.52270    0.25600    0.93970   1.00
C1       0.74400    0.26670    0.93970   1.00
O1       0.66667    0.33333    0.25863   1.00
Zn      0.66667    0.33333    0.28773   1.00
Zn      0.70953    0.28177    0.24977   1.00
Zn      0.71823    0.42777    0.24977   1.00
Zn      0.57223    0.29047    0.24977   1.00
O2       0.69277    0.27193    0.29773   1.00
O2       0.72807    0.42083    0.29773   1.00
O2       0.57917    0.30723    0.29773   1.00
O2       0.73827    0.24633    0.27183   1.00
O2       0.78693    0.33797    0.23257   1.00
O2       0.64743    0.20747    0.23297   1.00
O2       0.75367    0.49193    0.27183   1.00
O2       0.79253    0.43997    0.23297   1.00
O2       0.66203    0.44897    0.23257   1.00
O2       0.50807    0.26173    0.27183   1.00
O2       0.55103    0.21307    0.23257   1.00
O2       0.56003    0.35257    0.23297   1.00
C1       0.72687    0.24723    0.29003   1.00
C1       0.75277    0.47963    0.29003   1.00
C1       0.52037    0.27313    0.29003   1.00
C1       0.81063    0.39997    0.22697   1.00
C1       0.58933    0.18937    0.22697   1.00
C1       0.60003    0.41067    0.22697   1.00
O1       0.66667    0.33333    0.75863   1.00
Zn      0.66667    0.33333    0.78773   1.00
Zn      0.71823    0.29047    0.74977   1.00
Zn      0.57223    0.28177    0.74977   1.00
Zn      0.70953    0.42777    0.74977   1.00
O2       0.72807    0.30723    0.79773   1.00
O2       0.57917    0.27193    0.79773   1.00
O2       0.69277    0.42083    0.79773   1.00
O2       0.75367    0.26173    0.77183   1.00
O2       0.66203    0.21307    0.73257   1.00
O2       0.79253    0.35257    0.73297   1.00
O2       0.50807    0.24633    0.77183   1.00
O2       0.56003    0.20747    0.73297   1.00
O2       0.55103    0.33797    0.73257   1.00
O2       0.73827    0.49193    0.77183   1.00
O2       0.78693    0.44897    0.73257   1.00
O2       0.64743    0.43997    0.73297   1.00
C1       0.75277    0.27313    0.79003   1.00
C1       0.52037    0.24723    0.79003   1.00
C1       0.72687    0.47963    0.79003   1.00
C1       0.60003    0.18937    0.72697   1.00
C1       0.81063    0.41067    0.72697   1.00
C1       0.58933    0.39997    0.72697   1.00
O1       0.66667    0.33333    0.40803   1.00
Zn      0.66667    0.33333    0.37893   1.00
Zn      0.62380    0.38490    0.41690   1.00
Zn      0.61510    0.23890    0.41690   1.00
Zn      0.76110    0.37620    0.41690   1.00
O2       0.64057    0.39473    0.36893   1.00
O2       0.60527    0.24583    0.36893   1.00
O2       0.75417    0.35943    0.36893   1.00
O2       0.59507    0.42033    0.39483   1.00
O2       0.54640    0.32870    0.43410   1.00
O2       0.68590    0.45920    0.43370   1.00
O2       0.57967    0.17473    0.39483   1.00
O2       0.54080    0.22670    0.43370   1.00
O2       0.67130    0.21770    0.43410   1.00
O2       0.82527    0.40493    0.39483   1.00
O2       0.78230    0.45360    0.43410   1.00
O2       0.77330    0.31410    0.43370   1.00
C1       0.60647    0.41943    0.37663   1.00
C1       0.58057    0.18703    0.37663   1.00
C1       0.81297    0.39353    0.37663   1.00
C1       0.52270    0.26670    0.43970   1.00
C1       0.74400    0.47730    0.43970   1.00
C1       0.73330    0.25600    0.43970   1.00
O1       0.33333    0.66667    0.24137   1.00
Zn      0.33333    0.66667    0.21227   1.00
Zn      0.28177    0.70953    0.25023   1.00
Zn      0.42777    0.71823    0.25023   1.00
Zn      0.29047    0.57223    0.25023   1.00
O2       0.27193    0.69277    0.20227   1.00
O2       0.42083    0.72807    0.20227   1.00
O2       0.30723    0.57917    0.20227   1.00
O2       0.24633    0.73827    0.22817   1.00
O2       0.33797    0.78693    0.26743   1.00
O2       0.20747    0.64743    0.26703   1.00
O2       0.49193    0.75367    0.22817   1.00
O2       0.43997    0.79253    0.26703   1.00
O2       0.44897    0.66203    0.26743   1.00
O2       0.26173    0.50807    0.22817   1.00
O2       0.21307    0.55103    0.26743   1.00
O2       0.35257    0.56003    0.26703   1.00
C1       0.24723    0.72687    0.20997   1.00
C1       0.47963    0.75277    0.20997   1.00
C1       0.27313    0.52037    0.20997   1.00
C1       0.39997    0.81063    0.27303   1.00
C1       0.18937    0.58933    0.27303   1.00
C1       0.41067    0.60003    0.27303   1.00
O1       0.33333    0.66667    0.59197   1.00
Zn      0.33333    0.66667    0.62107   1.00
Zn      0.37620    0.61510    0.58310   1.00
Zn      0.38490    0.76110    0.58310   1.00
Zn      0.23890    0.62380    0.58310   1.00
O2       0.35943    0.60527    0.63107   1.00
O2       0.39473    0.75417    0.63107   1.00
O2       0.24583    0.64057    0.63107   1.00
O2       0.40493    0.57967    0.60517   1.00
O2       0.45360    0.67130    0.56590   1.00
O2       0.31410    0.54080    0.56630   1.00
O2       0.42033    0.82527    0.60517   1.00
O2       0.45920    0.77330    0.56630   1.00
O2       0.32870    0.78230    0.56590   1.00
O2       0.17473    0.59507    0.60517   1.00
O2       0.21770    0.54640    0.56590   1.00
O2       0.22670    0.68590    0.56630   1.00
C1       0.39353    0.58057    0.62337   1.00
C1       0.41943    0.81297    0.62337   1.00
C1       0.18703    0.60647    0.62337   1.00
C1       0.47730    0.73330    0.56030   1.00
C1       0.25600    0.52270    0.56030   1.00
C1       0.26670    0.74400    0.56030   1.00
O1       0.33333    0.66667    0.09197   1.00
Zn      0.33333    0.66667    0.12107   1.00
Zn      0.38490    0.62380    0.08310   1.00
Zn      0.23890    0.61510    0.08310   1.00
Zn      0.37620    0.76110    0.08310   1.00
O2       0.39473    0.64057    0.13107   1.00
O2       0.24583    0.60527    0.13107   1.00
O2       0.35943    0.75417    0.13107   1.00
O2       0.42033    0.59507    0.10517   1.00
O2       0.32870    0.54640    0.06590   1.00
O2       0.45920    0.68590    0.06630   1.00
O2       0.17473    0.57967    0.10517   1.00
O2       0.22670    0.54080    0.06630   1.00
O2       0.21770    0.67130    0.06590   1.00
O2       0.40493    0.82527    0.10517   1.00
O2       0.45360    0.78230    0.06590   1.00
O2       0.31410    0.77330    0.06630   1.00
C1       0.41943    0.60647    0.12337   1.00
C1       0.18703    0.58057    0.12337   1.00
C1       0.39353    0.81297    0.12337   1.00
C1       0.26670    0.52270    0.06030   1.00
C1       0.47730    0.74400    0.06030   1.00
C1       0.25600    0.73330    0.06030   1.00
O1       0.33333    0.66667    0.74137   1.00
Zn      0.33333    0.66667    0.71227   1.00
Zn      0.29047    0.71823    0.75023   1.00
Zn      0.28177    0.57223    0.75023   1.00
Zn      0.42777    0.70953    0.75023   1.00
O2       0.30723    0.72807    0.70227   1.00
O2       0.27193    0.57917    0.70227   1.00
O2       0.42083    0.69277    0.70227   1.00
O2       0.26173    0.75367    0.72817   1.00
O2       0.21307    0.66203    0.76743   1.00
O2       0.35257    0.79253    0.76703   1.00
O2       0.24633    0.50807    0.72817   1.00
O2       0.20747    0.56003    0.76703   1.00
O2       0.33797    0.55103    0.76743   1.00
O2       0.49193    0.73827    0.72817   1.00
O2       0.44897    0.78693    0.76743   1.00
O2       0.43997    0.64743    0.76703   1.00
C1       0.27313    0.75277    0.70997   1.00
C1       0.24723    0.52037    0.70997   1.00
C1       0.47963    0.72687    0.70997   1.00
C1       0.18937    0.60003    0.77303   1.00
C1       0.41067    0.81063    0.77303   1.00
C1       0.39997    0.58933    0.77303   1.00
C2       0.77195    0.52855    0.45717   1.00
C3       0.73451    0.54963    0.46693   1.00
H1       0.68789    0.52770    0.46446   1.00
C3       0.83965    0.56010    0.46144   1.00
H1       0.86662    0.54548    0.45501   1.00
C3a      0.76204    0.60255    0.48062   1.00
H1       0.73586    0.61720    0.48751   1.00
C3b      0.86948    0.61331    0.47511   1.00
H1       0.91568    0.63403    0.47816   1.00
C6       0.83041    0.63439    0.48516   1.00
C6       0.86179    0.69072    0.50013   1.00
C3c      0.86290    0.67687    0.52055   1.00
H1       0.84874    0.63258    0.52477   1.00
C3d      0.88830    0.75696    0.49296   1.00
H1       0.88781    0.76803    0.47941   1.00
C3       0.88969    0.73051    0.53420   1.00
H1       0.89151    0.72151    0.54790   1.00
C3       0.91369    0.80968    0.50820   1.00
H1       0.93078    0.85454    0.50405   1.00
C2       0.91370    0.79640    0.52810   1.00
C2       0.47145    0.24340    0.45717   1.00
C3       0.45037    0.18488    0.46693   1.00
H1       0.47230    0.16019    0.46446   1.00
C3       0.43990    0.27955    0.46144   1.00
H1       0.45452    0.32114    0.45501   1.00
C3a      0.39745    0.15949    0.48062   1.00
H1       0.38280    0.11866    0.48751   1.00
C3b      0.38669    0.25617    0.47511   1.00
H1       0.36597    0.28166    0.47816   1.00
C6       0.36561    0.19602    0.48516   1.00
C6       0.30928    0.17107    0.50013   1.00
C3c      0.32313    0.18603    0.52055   1.00
H1       0.36742    0.21616    0.52477   1.00
C3d      0.24304    0.13134    0.49296   1.00
H1       0.23197    0.11978    0.47941   1.00
C3       0.26949    0.15918    0.53420   1.00
H1       0.27849    0.17000    0.54790   1.00
C3       0.19032    0.10401    0.50820   1.00
H1       0.14546    0.07624    0.50405   1.00
C2       0.20360    0.11730    0.52810   1.00
C2       0.75660    0.22805    0.45717   1.00
C3       0.81512    0.26549    0.46693   1.00
H1       0.83981    0.31211    0.46446   1.00
C3       0.72045    0.16035    0.46144   1.00
H1       0.67886    0.13338    0.45501   1.00
C3a      0.84051    0.23796    0.48062   1.00
H1       0.88134    0.26414    0.48751   1.00
C3b      0.74383    0.13052    0.47511   1.00
H1       0.71834    0.08432    0.47816   1.00
C6       0.80398    0.16959    0.48516   1.00
C6       0.82893    0.13821    0.50013   1.00
C3c      0.81397    0.13710    0.52055   1.00
H1       0.78384    0.15126    0.52477   1.00
C3d      0.86866    0.11170    0.49296   1.00
H1       0.88022    0.11219    0.47941   1.00
C3       0.84082    0.11031    0.53420   1.00
H1       0.83000    0.10849    0.54790   1.00
C3       0.89599    0.08631    0.50820   1.00
H1       0.92376    0.06922    0.50405   1.00
C2       0.88270    0.08630    0.52810   1.00
C2       0.52855    0.77195    0.04283   1.00
C3       0.54963    0.73451    0.03307   1.00
H1       0.52770    0.68789    0.03554   1.00
C3       0.56010    0.83965    0.03856   1.00
H1       0.54548    0.86662    0.04499   1.00
C3a      0.60255    0.76204    0.01938   1.00
H1       0.61720    0.73586    0.01249   1.00
C3b      0.61331    0.86948    0.02489   1.00
H1       0.63403    0.91568    0.02184   1.00
C6       0.63439    0.83041    0.01484   1.00
C6       0.69072    0.86179    0.99987   1.00
C3c      0.67687    0.86290    0.97945   1.00
H1       0.63258    0.84874    0.97523   1.00
C3d      0.75696    0.88830    0.00704   1.00
H1       0.76803    0.88781    0.02059   1.00
C3       0.73051    0.88969    0.96580   1.00
H1       0.72151    0.89151    0.95210   1.00
C3       0.80968    0.91369    0.99180   1.00
H1       0.85454    0.93078    0.99595   1.00
C2       0.79640    0.91370    0.97190   1.00
C2       0.24340    0.47145    0.04283   1.00
C3       0.18488    0.45037    0.03307   1.00
H1       0.16019    0.47230    0.03554   1.00
C3       0.27955    0.43990    0.03856   1.00
H1       0.32114    0.45452    0.04499   1.00
C3a      0.15949    0.39745    0.01938   1.00
H1       0.11866    0.38280    0.01249   1.00
C3b      0.25617    0.38669    0.02489   1.00
H1       0.28166    0.36597    0.02184   1.00
C6       0.19602    0.36561    0.01484   1.00
C6       0.17107    0.30928    0.99987   1.00
C3c      0.18603    0.32313    0.97945   1.00
H1       0.21616    0.36742    0.97523   1.00
C3d      0.13134    0.24304    0.00704   1.00
H1       0.11978    0.23197    0.02059   1.00
C3       0.15918    0.26949    0.96580   1.00
H1       0.17000    0.27849    0.95210   1.00
C3       0.10401    0.19032    0.99180   1.00
H1       0.07624    0.14546    0.99595   1.00
C2       0.11730    0.20360    0.97190   1.00
C2       0.22805    0.75660    0.04283   1.00
C3       0.26549    0.81512    0.03307   1.00
H1       0.31211    0.83981    0.03554   1.00
C3       0.16035    0.72045    0.03856   1.00
H1       0.13338    0.67886    0.04499   1.00
C3a      0.23796    0.84051    0.01938   1.00
H1       0.26414    0.88134    0.01249   1.00
C3b      0.13052    0.74383    0.02489   1.00
H1       0.08432    0.71834    0.02184   1.00
C6       0.16959    0.80398    0.01484   1.00
C6       0.13821    0.82893    0.99987   1.00
C3c      0.13710    0.81397    0.97945   1.00
H1       0.15126    0.78384    0.97523   1.00
C3d      0.11170    0.86866    0.00704   1.00
H1       0.11219    0.88022    0.02059   1.00
C3       0.11031    0.84082    0.96580   1.00
H1       0.10849    0.83000    0.95210   1.00
C3       0.08631    0.89599    0.99180   1.00
H1       0.06922    0.92376    0.99595   1.00
C2       0.08630    0.88270    0.97190   1.00
C2       0.22805    0.47145    0.54283   1.00
C3       0.26549    0.45037    0.53307   1.00
H1       0.31211    0.47230    0.53554   1.00
C3       0.16035    0.43990    0.53856   1.00
H1       0.13338    0.45452    0.54499   1.00
C3a      0.23796    0.39745    0.51938   1.00
H1       0.26414    0.38280    0.51249   1.00
C3b      0.13052    0.38669    0.52489   1.00
H1       0.08432    0.36597    0.52184   1.00
C6       0.16959    0.36561    0.51484   1.00
C6       0.13821    0.30928    0.49987   1.00
C3c      0.13710    0.32313    0.47945   1.00
H1       0.15126    0.36742    0.47523   1.00
C3d      0.11170    0.24304    0.50704   1.00
H1       0.11219    0.23197    0.52059   1.00
C3       0.11031    0.26949    0.46580   1.00
H1       0.10849    0.27849    0.45210   1.00
C3       0.08631    0.19032    0.49180   1.00
H1       0.06922    0.14546    0.49595   1.00
C2       0.08630    0.20360    0.47190   1.00
C2       0.52855    0.75660    0.54283   1.00
C3       0.54963    0.81512    0.53307   1.00
H1       0.52770    0.83981    0.53554   1.00
C3       0.56010    0.72045    0.53856   1.00
H1       0.54548    0.67886    0.54499   1.00
C3a      0.60255    0.84051    0.51938   1.00
H1       0.61720    0.88134    0.51249   1.00
C3b      0.61331    0.74383    0.52489   1.00
H1       0.63403    0.71834    0.52184   1.00
C6       0.63439    0.80398    0.51484   1.00
C6       0.69072    0.82893    0.49987   1.00
C3c      0.67687    0.81397    0.47945   1.00
H1       0.63258    0.78384    0.47523   1.00
C3d      0.75696    0.86866    0.50704   1.00
H1       0.76803    0.88022    0.52059   1.00
C3       0.73051    0.84082    0.46580   1.00
H1       0.72151    0.83000    0.45210   1.00
C3       0.80968    0.89599    0.49180   1.00
H1       0.85454    0.92376    0.49595   1.00
C2       0.79640    0.88270    0.47190   1.00
C2       0.24340    0.77195    0.54283   1.00
C3       0.18488    0.73451    0.53307   1.00
H1       0.16019    0.68789    0.53554   1.00
C3       0.27955    0.83965    0.53856   1.00
H1       0.32114    0.86662    0.54499   1.00
C3a      0.15949    0.76204    0.51938   1.00
H1       0.11866    0.73586    0.51249   1.00
C3b      0.25617    0.86948    0.52489   1.00
H1       0.28166    0.91568    0.52184   1.00
C6       0.19602    0.83041    0.51484   1.00
C6       0.17107    0.86179    0.49987   1.00
C3c      0.18603    0.86290    0.47945   1.00
H1       0.21616    0.84874    0.47523   1.00
C3d      0.13134    0.88830    0.50704   1.00
H1       0.11978    0.88781    0.52059   1.00
C3       0.15918    0.88969    0.46580   1.00
H1       0.17000    0.89151    0.45210   1.00
C3       0.10401    0.91369    0.49180   1.00
H1       0.07624    0.93078    0.49595   1.00
C2       0.11730    0.91370    0.47190   1.00
C2       0.47145    0.22805    0.95717   1.00
C3       0.45037    0.26549    0.96693   1.00
H1       0.47230    0.31211    0.96446   1.00
C3       0.43990    0.16035    0.96144   1.00
H1       0.45452    0.13338    0.95501   1.00
C3a      0.39745    0.23796    0.98062   1.00
H1       0.38280    0.26414    0.98751   1.00
C3b      0.38669    0.13052    0.97511   1.00
H1       0.36597    0.08432    0.97816   1.00
C6       0.36561    0.16959    0.98516   1.00
C6       0.30928    0.13821    0.00013   1.00
C3c      0.32313    0.13710    0.02055   1.00
H1       0.36742    0.15126    0.02477   1.00
C3d      0.24304    0.11170    0.99296   1.00
H1       0.23197    0.11219    0.97941   1.00
C3       0.26949    0.11031    0.03420   1.00
H1       0.27849    0.10849    0.04790   1.00
C3       0.19032    0.08631    0.00820   1.00
H1       0.14546    0.06922    0.00405   1.00
C2       0.20360    0.08630    0.02810   1.00
C2       0.75660    0.52855    0.95717   1.00
C3       0.81512    0.54963    0.96693   1.00
H1       0.83981    0.52770    0.96446   1.00
C3       0.72045    0.56010    0.96144   1.00
H1       0.67886    0.54548    0.95501   1.00
C3a      0.84051    0.60255    0.98062   1.00
H1       0.88134    0.61720    0.98751   1.00
C3b      0.74383    0.61331    0.97511   1.00
H1       0.71834    0.63403    0.97816   1.00
C6       0.80398    0.63439    0.98516   1.00
C6       0.82893    0.69072    0.00013   1.00
C3c      0.81397    0.67687    0.02055   1.00
H1       0.78384    0.63258    0.02477   1.00
C3d      0.86866    0.75696    0.99296   1.00
H1       0.88022    0.76803    0.97941   1.00
C3       0.84082    0.73051    0.03420   1.00
H1       0.83000    0.72151    0.04790   1.00
C3       0.89599    0.80968    0.00820   1.00
H1       0.92376    0.85454    0.00405   1.00
C2       0.88270    0.79640    0.02810   1.00
C2       0.77195    0.24340    0.95717   1.00
C3       0.73451    0.18488    0.96693   1.00
H1       0.68789    0.16019    0.96446   1.00
C3       0.83965    0.27955    0.96144   1.00
H1       0.86662    0.32114    0.95501   1.00
C3a      0.76204    0.15949    0.98062   1.00
H1       0.73586    0.11866    0.98751   1.00
C3b      0.86948    0.25617    0.97511   1.00
H1       0.91568    0.28166    0.97816   1.00
C6       0.83041    0.19602    0.98516   1.00
C6       0.86179    0.17107    0.00013   1.00
C3c      0.86290    0.18603    0.02055   1.00
H1       0.84874    0.21616    0.02477   1.00
C3d      0.88830    0.13134    0.99296   1.00
H1       0.88781    0.11978    0.97941   1.00
C3       0.88969    0.15918    0.03420   1.00
H1       0.89151    0.17000    0.04790   1.00
C3       0.91369    0.10401    0.00820   1.00
H1       0.93078    0.07624    0.00405   1.00
C2       0.91370    0.11730    0.02810   1.00
C2       0.43862    0.86188    0.79050   1.00
C3       0.40118    0.88296    0.80026   1.00
H1       0.35456    0.86103    0.79779   1.00
C3       0.50632    0.89343    0.79477   1.00
H1       0.53329    0.87881    0.78834   1.00
C3a      0.42871    0.93588    0.81395   1.00
H1       0.40253    0.95053    0.82084   1.00
C3b      0.53615    0.94664    0.80844   1.00
H1       0.58235    0.96736    0.81149   1.00
C6       0.49708    0.96772    0.81849   1.00
C6       0.52846    0.02405    0.83346   1.00
C3c      0.52957    0.01020    0.85388   1.00
H1       0.51541    -0.03409   0.85810   1.00
C3d      0.55497    0.09029    0.82629   1.00
H1       0.55448    0.10136    0.81274   1.00
C3       0.55636    0.06384    0.86753   1.00
H1       0.55818    0.05484    0.88123   1.00
C3       0.58036    0.14301    0.84153   1.00
H1       0.59745    0.18787    0.83738   1.00
C2       0.58037    0.12973    0.86143   1.00
C2       0.13812    0.57673    0.79050   1.00
C3       0.11704    0.51821    0.80026   1.00
H1       0.13897    0.49352    0.79779   1.00
C3       0.10657    0.61288    0.79477   1.00
H1       0.12119    0.65447    0.78834   1.00
C3a      0.06412    0.49282    0.81395   1.00
H1       0.04947    0.45199    0.82084   1.00
C3b      0.05336    0.58950    0.80844   1.00
H1       0.03264    0.61499    0.81149   1.00
C6       0.03228    0.52935    0.81849   1.00
C6       0.97595    0.50440    0.83346   1.00
C3c      0.98980    0.51936    0.85388   1.00
H1       1.03409    0.54949    0.85810   1.00
C3d      0.90971    0.46467    0.82629   1.00
H1       0.89864    0.45311    0.81274   1.00
C3       0.93616    0.49251    0.86753   1.00
H1       0.94516    0.50333    0.88123   1.00
C3       0.85699    0.43734    0.84153   1.00
H1       0.81213    0.40957    0.83738   1.00
C2       0.87027    0.45063    0.86143   1.00
C2       0.42327    0.56138    0.79050   1.00
C3       0.48179    0.59882    0.80026   1.00
H1       0.50648    0.64544    0.79779   1.00
C3       0.38712    0.49368    0.79477   1.00
H1       0.34553    0.46671    0.78834   1.00
C3a      0.50718    0.57129    0.81395   1.00
H1       0.54801    0.59747    0.82084   1.00
C3b      0.41050    0.46385    0.80844   1.00
H1       0.38501    0.41765    0.81149   1.00
C6       0.47065    0.50292    0.81849   1.00
C6       0.49560    0.47154    0.83346   1.00
C3c      0.48064    0.47043    0.85388   1.00
H1       0.45051    0.48459    0.85810   1.00
C3d      0.53533    0.44503    0.82629   1.00
H1       0.54689    0.44552    0.81274   1.00
C3       0.50749    0.44364    0.86753   1.00
H1       0.49667    0.44182    0.88123   1.00
C3       0.56266    0.41964    0.84153   1.00
H1       0.59043    0.40255    0.83738   1.00
C2       0.54937    0.41963    0.86143   1.00
C2       0.19522    0.10528    0.37616   1.00
C3       0.21630    0.06784    0.36640   1.00
H1       0.19437    0.02122    0.36887   1.00
C3       0.22677    0.17298    0.37189   1.00
H1       0.21215    0.19995    0.37832   1.00
C3a      0.26922    0.09537    0.35271   1.00
H1       0.28387    0.06919    0.34582   1.00
C3b      0.27998    0.20281    0.35822   1.00
H1       0.30070    0.24901    0.35517   1.00
C6       0.30106    0.16374    0.34817   1.00
C6       0.35739    0.19512    0.33320   1.00
C3c      0.34354    0.19623    0.31278   1.00
H1       0.29925    0.18207    0.30856   1.00
C3d      0.42363    0.22163    0.34037   1.00
H1       0.43470    0.22114    0.35392   1.00
C3       0.39718    0.22302    0.29913   1.00
H1       0.38818    0.22484    0.28543   1.00
C3       0.47635    0.24702    0.32513   1.00
H1       0.52121    0.26411    0.32928   1.00
C2       0.46307    0.24703    0.30523   1.00
C2       0.91007    0.80478    0.37616   1.00
C3       0.85155    0.78370    0.36640   1.00
H1       0.82686    0.80563    0.36887   1.00
C3       0.94622    0.77323    0.37189   1.00
H1       0.98781    0.78785    0.37832   1.00
C3a      0.82616    0.73078    0.35271   1.00
H1       0.78533    0.71613    0.34582   1.00
C3b      0.92284    0.72002    0.35822   1.00
H1       0.94833    0.69930    0.35517   1.00
C6       0.86269    0.69894    0.34817   1.00
C6       0.83774    0.64261    0.33320   1.00
C3c      0.85270    0.65646    0.31278   1.00
H1       0.88283    0.70075    0.30856   1.00
C3d      0.79801    0.57637    0.34037   1.00
H1       0.78645    0.56530    0.35392   1.00
C3       0.82585    0.60282    0.29913   1.00
H1       0.83667    0.61182    0.28543   1.00
C3       0.77068    0.52365    0.32513   1.00
H1       0.74291    0.47879    0.32928   1.00
C2       0.78397    0.53693    0.30523   1.00
C2       0.89472    0.08993    0.37616   1.00
C3       0.93216    0.14845    0.36640   1.00
H1       0.97878    0.17314    0.36887   1.00
C3       0.82702    0.05378    0.37189   1.00
H1       0.80005    0.01219    0.37832   1.00
C3a      0.90463    0.17384    0.35271   1.00
H1       0.93081    0.21467    0.34582   1.00
C3b      0.79719    0.07716    0.35822   1.00
H1       0.75099    0.05167    0.35517   1.00
C6       0.83626    0.13731    0.34817   1.00
C6       0.80488    0.16226    0.33320   1.00
C3c      0.80377    0.14730    0.31278   1.00
H1       0.81793    0.11717    0.30856   1.00
C3d      0.77837    0.20199    0.34037   1.00
H1       0.77886    0.21355    0.35392   1.00
C3       0.77698    0.17415    0.29913   1.00
H1       0.77516    0.16333    0.28543   1.00
C3       0.75298    0.22932    0.32513   1.00
H1       0.73589    0.25709    0.32928   1.00
C2       0.75297    0.21603    0.30523   1.00
C2       0.89472    0.80478    0.87616   1.00
C3       0.93216    0.78370    0.86640   1.00
H1       0.97878    0.80563    0.86887   1.00
C3       0.82702    0.77323    0.87189   1.00
H1       0.80005    0.78785    0.87832   1.00
C3a      0.90463    0.73078    0.85271   1.00
H1       0.93081    0.71613    0.84582   1.00
C3b      0.79719    0.72002    0.85822   1.00
H1       0.75099    0.69930    0.85517   1.00
C6       0.83626    0.69894    0.84817   1.00
C6       0.80488    0.64261    0.83320   1.00
C3c      0.80377    0.65646    0.81278   1.00
H1       0.81793    0.70075    0.80856   1.00
C3d      0.77837    0.57637    0.84037   1.00
H1       0.77886    0.56530    0.85392   1.00
C3       0.77698    0.60282    0.79913   1.00
H1       0.77516    0.61182    0.78543   1.00
C3       0.75298    0.52365    0.82513   1.00
H1       0.73589    0.47879    0.82928   1.00
C2       0.75297    0.53693    0.80523   1.00
C2       0.19522    0.08993    0.87616   1.00
C3       0.21630    0.14845    0.86640   1.00
H1       0.19437    0.17314    0.86887   1.00
C3       0.22677    0.05378    0.87189   1.00
H1       0.21215    0.01219    0.87832   1.00
C3a      0.26922    0.17384    0.85271   1.00
H1       0.28387    0.21467    0.84582   1.00
C3b      0.27998    0.07716    0.85822   1.00
H1       0.30070    0.05167    0.85517   1.00
C6       0.30106    0.13731    0.84817   1.00
C6       0.35739    0.16226    0.83320   1.00
C3c      0.34354    0.14730    0.81278   1.00
H1       0.29925    0.11717    0.80856   1.00
C3d      0.42363    0.20199    0.84037   1.00
H1       0.43470    0.21355    0.85392   1.00
C3       0.39718    0.17415    0.79913   1.00
H1       0.38818    0.16333    0.78543   1.00
C3       0.47635    0.22932    0.82513   1.00
H1       0.52121    0.25709    0.82928   1.00
C2       0.46307    0.21603    0.80523   1.00
C2       0.91007    0.10528    0.87616   1.00
C3       0.85155    0.06784    0.86640   1.00
H1       0.82686    0.02122    0.86887   1.00
C3       0.94622    0.17298    0.87189   1.00
H1       0.98781    0.19995    0.87832   1.00
C3a      0.82616    0.09537    0.85271   1.00
H1       0.78533    0.06919    0.84582   1.00
C3b      0.92284    0.20281    0.85822   1.00
H1       0.94833    0.24901    0.85517   1.00
C6       0.86269    0.16374    0.84817   1.00
C6       0.83774    0.19512    0.83320   1.00
C3c      0.85270    0.19623    0.81278   1.00
H1       0.88283    0.18207    0.80856   1.00
C3d      0.79801    0.22163    0.84037   1.00
H1       0.78645    0.22114    0.85392   1.00
C3       0.82585    0.22302    0.79913   1.00
H1       0.83667    0.22484    0.78543   1.00
C3       0.77068    0.24702    0.82513   1.00
H1       0.74291    0.26411    0.82928   1.00
C2       0.78397    0.24703    0.80523   1.00
C2       0.13812    0.56138    0.29050   1.00
C3       0.11704    0.59882    0.30026   1.00
H1       0.13897    0.64544    0.29779   1.00
C3       0.10657    0.49368    0.29477   1.00
H1       0.12119    0.46671    0.28834   1.00
C3a      0.06412    0.57129    0.31395   1.00
H1       0.04947    0.59747    0.32084   1.00
C3b      0.05336    0.46385    0.30844   1.00
H1       0.03264    0.41765    0.31149   1.00
C6       0.03228    0.50292    0.31849   1.00
C6       0.97595    0.47154    0.33346   1.00
C3c      0.98980    0.47043    0.35388   1.00
H1       1.03409    0.48459    0.35810   1.00
C3d      0.90971    0.44503    0.32629   1.00
H1       0.89864    0.44552    0.31274   1.00
C3       0.93616    0.44364    0.36753   1.00
H1       0.94516    0.44182    0.38123   1.00
C3       0.85699    0.41964    0.34153   1.00
H1       0.81213    0.40255    0.33738   1.00
C2       0.87027    0.41963    0.36143   1.00
C2       0.42327    0.86188    0.29050   1.00
C3       0.48179    0.88296    0.30026   1.00
H1       0.50648    0.86103    0.29779   1.00
C3       0.38712    0.89343    0.29477   1.00
H1       0.34553    0.87881    0.28834   1.00
C3a      0.50718    0.93588    0.31395   1.00
H1       0.54801    0.95053    0.32084   1.00
C3b      0.41050    0.94664    0.30844   1.00
H1       0.38501    0.96736    0.31149   1.00
C6       0.47065    0.96772    0.31849   1.00
C6       0.49560    0.02405    0.33346   1.00
C3c      0.48064    0.01020    0.35388   1.00
H1       0.45051    -0.03409   0.35810   1.00
C3d      0.53533    0.09029    0.32629   1.00
H1       0.54689    0.10136    0.31274   1.00
C3       0.50749    0.06384    0.36753   1.00
H1       0.49667    0.05484    0.38123   1.00
C3       0.56266    0.14301    0.34153   1.00
H1       0.59043    0.18787    0.33738   1.00
C2       0.54937    0.12973    0.36143   1.00
C2       0.43862    0.57673    0.29050   1.00
C3       0.40118    0.51821    0.30026   1.00
H1       0.35456    0.49352    0.29779   1.00
C3       0.50632    0.61288    0.29477   1.00
H1       0.53329    0.65447    0.28834   1.00
C3a      0.42871    0.49282    0.31395   1.00
H1       0.40253    0.45199    0.32084   1.00
C3b      0.53615    0.58950    0.30844   1.00
H1       0.58235    0.61499    0.31149   1.00
C6       0.49708    0.52935    0.31849   1.00
C6       0.52846    0.50440    0.33346   1.00
C3c      0.52957    0.51936    0.35388   1.00
H1       0.51541    0.54949    0.35810   1.00
C3d      0.55497    0.46467    0.32629   1.00
H1       0.55448    0.45311    0.31274   1.00
C3       0.55636    0.49251    0.36753   1.00
H1       0.55818    0.50333    0.38123   1.00
C3       0.58036    0.43734    0.34153   1.00
H1       0.59745    0.40957    0.33738   1.00
C2       0.58037    0.45063    0.36143   1.00
C2       0.10528    0.19522    0.12384   1.00
C3       0.06784    0.21630    0.13360   1.00
H1       0.02122    0.19437    0.13113   1.00
C3       0.17298    0.22677    0.12811   1.00
H1       0.19995    0.21215    0.12168   1.00
C3a      0.09537    0.26922    0.14729   1.00
H1       0.06919    0.28387    0.15418   1.00
C3b      0.20281    0.27998    0.14178   1.00
H1       0.24901    0.30070    0.14483   1.00
C6       0.16374    0.30106    0.15183   1.00
C6       0.19512    0.35739    0.16680   1.00
C3c      0.19623    0.34354    0.18722   1.00
H1       0.18207    0.29925    0.19144   1.00
C3d      0.22163    0.42363    0.15963   1.00
H1       0.22114    0.43470    0.14608   1.00
C3       0.22302    0.39718    0.20087   1.00
H1       0.22484    0.38818    0.21457   1.00
C3       0.24702    0.47635    0.17487   1.00
H1       0.26411    0.52121    0.17072   1.00
C2       0.24703    0.46307    0.19477   1.00
C2       0.80478    0.91007    0.12384   1.00
C3       0.78370    0.85155    0.13360   1.00
H1       0.80563    0.82686    0.13113   1.00
C3       0.77323    0.94622    0.12811   1.00
H1       0.78785    0.98781    0.12168   1.00
C3a      0.73078    0.82616    0.14729   1.00
H1       0.71613    0.78533    0.15418   1.00
C3b      0.72002    0.92284    0.14178   1.00
H1       0.69930    0.94833    0.14483   1.00
C6       0.69894    0.86269    0.15183   1.00
C6       0.64261    0.83774    0.16680   1.00
C3c      0.65646    0.85270    0.18722   1.00
H1       0.70075    0.88283    0.19144   1.00
C3d      0.57637    0.79801    0.15963   1.00
H1       0.56530    0.78645    0.14608   1.00
C3       0.60282    0.82585    0.20087   1.00
H1       0.61182    0.83667    0.21457   1.00
C3       0.52365    0.77068    0.17487   1.00
H1       0.47879    0.74291    0.17072   1.00
C2       0.53693    0.78397    0.19477   1.00
C2       0.08993    0.89472    0.12384   1.00
C3       0.14845    0.93216    0.13360   1.00
H1       0.17314    0.97878    0.13113   1.00
C3       0.05378    0.82702    0.12811   1.00
H1       0.01219    0.80005    0.12168   1.00
C3a      0.17384    0.90463    0.14729   1.00
H1       0.21467    0.93081    0.15418   1.00
C3b      0.07716    0.79719    0.14178   1.00
H1       0.05167    0.75099    0.14483   1.00
C6       0.13731    0.83626    0.15183   1.00
C6       0.16226    0.80488    0.16680   1.00
C3c      0.14730    0.80377    0.18722   1.00
H1       0.11717    0.81793    0.19144   1.00
C3d      0.20199    0.77837    0.15963   1.00
H1       0.21355    0.77886    0.14608   1.00
C3       0.17415    0.77698    0.20087   1.00
H1       0.16333    0.77516    0.21457   1.00
C3       0.22932    0.75298    0.17487   1.00
H1       0.25709    0.73589    0.17072   1.00
C2       0.21603    0.75297    0.19477   1.00
C2       0.86188    0.43862    0.70950   1.00
C3       0.88296    0.40118    0.69974   1.00
H1       0.86103    0.35456    0.70221   1.00
C3       0.89343    0.50632    0.70523   1.00
H1       0.87881    0.53329    0.71166   1.00
C3a      0.93588    0.42871    0.68605   1.00
H1       0.95053    0.40253    0.67916   1.00
C3b      0.94664    0.53615    0.69156   1.00
H1       0.96736    0.58235    0.68851   1.00
C6       0.96772    0.49708    0.68151   1.00
C6       0.02405    0.52846    0.66654   1.00
C3c      0.01020    0.52957    0.64612   1.00
H1       -0.03409   0.51541    0.64190   1.00
C3d      0.09029    0.55497    0.67371   1.00
H1       0.10136    0.55448    0.68726   1.00
C3       0.06384    0.55636    0.63247   1.00
H1       0.05484    0.55818    0.61877   1.00
C3       0.14301    0.58036    0.65847   1.00
H1       0.18787    0.59745    0.66262   1.00
C2       0.12973    0.58037    0.63857   1.00
C2       0.57673    0.13812    0.70950   1.00
C3       0.51821    0.11704    0.69974   1.00
H1       0.49352    0.13897    0.70221   1.00
C3       0.61288    0.10657    0.70523   1.00
H1       0.65447    0.12119    0.71166   1.00
C3a      0.49282    0.06412    0.68605   1.00
H1       0.45199    0.04947    0.67916   1.00
C3b      0.58950    0.05336    0.69156   1.00
H1       0.61499    0.03264    0.68851   1.00
C6       0.52935    0.03228    0.68151   1.00
C6       0.50440    0.97595    0.66654   1.00
C3c      0.51936    0.98980    0.64612   1.00
H1       0.54949    1.03409    0.64190   1.00
C3d      0.46467    0.90971    0.67371   1.00
H1       0.45311    0.89864    0.68726   1.00
C3       0.49251    0.93616    0.63247   1.00
H1       0.50333    0.94516    0.61877   1.00
C3       0.43734    0.85699    0.65847   1.00
H1       0.40957    0.81213    0.66262   1.00
C2       0.45063    0.87027    0.63857   1.00
C2       0.56138    0.42327    0.70950   1.00
C3       0.59882    0.48179    0.69974   1.00
H1       0.64544    0.50648    0.70221   1.00
C3       0.49368    0.38712    0.70523   1.00
H1       0.46671    0.34553    0.71166   1.00
C3a      0.57129    0.50718    0.68605   1.00
H1       0.59747    0.54801    0.67916   1.00
C3b      0.46385    0.41050    0.69156   1.00
H1       0.41765    0.38501    0.68851   1.00
C6       0.50292    0.47065    0.68151   1.00
C6       0.47154    0.49560    0.66654   1.00
C3c      0.47043    0.48064    0.64612   1.00
H1       0.48459    0.45051    0.64190   1.00
C3d      0.44503    0.53533    0.67371   1.00
H1       0.44552    0.54689    0.68726   1.00
C3       0.44364    0.50749    0.63247   1.00
H1       0.44182    0.49667    0.61877   1.00
C3       0.41964    0.56266    0.65847   1.00
H1       0.40255    0.59043    0.66262   1.00
C2       0.41963    0.54937    0.63857   1.00
C2       0.56138    0.13812    0.20950   1.00
C3       0.59882    0.11704    0.19974   1.00
H1       0.64544    0.13897    0.20221   1.00
C3       0.49368    0.10657    0.20523   1.00
H1       0.46671    0.12119    0.21166   1.00
C3a      0.57129    0.06412    0.18605   1.00
H1       0.59747    0.04947    0.17916   1.00
C3b      0.46385    0.05336    0.19156   1.00
H1       0.41765    0.03264    0.18851   1.00
C6       0.50292    0.03228    0.18151   1.00
C6       0.47154    0.97595    0.16654   1.00
C3c      0.47043    0.98980    0.14612   1.00
H1       0.48459    1.03409    0.14190   1.00
C3d      0.44503    0.90971    0.17371   1.00
H1       0.44552    0.89864    0.18726   1.00
C3       0.44364    0.93616    0.13247   1.00
H1       0.44182    0.94516    0.11877   1.00
C3       0.41964    0.85699    0.15847   1.00
H1       0.40255    0.81213    0.16262   1.00
C2       0.41963    0.87027    0.13857   1.00
C2       0.86188    0.42327    0.20950   1.00
C3       0.88296    0.48179    0.19974   1.00
H1       0.86103    0.50648    0.20221   1.00
C3       0.89343    0.38712    0.20523   1.00
H1       0.87881    0.34553    0.21166   1.00
C3a      0.93588    0.50718    0.18605   1.00
H1       0.95053    0.54801    0.17916   1.00
C3b      0.94664    0.41050    0.19156   1.00
H1       0.96736    0.38501    0.18851   1.00
C6       0.96772    0.47065    0.18151   1.00
C6       0.02405    0.49560    0.16654   1.00
C3c      0.01020    0.48064    0.14612   1.00
H1       -0.03409   0.45051    0.14190   1.00
C3d      0.09029    0.53533    0.17371   1.00
H1       0.10136    0.54689    0.18726   1.00
C3       0.06384    0.50749    0.13247   1.00
H1       0.05484    0.49667    0.11877   1.00
C3       0.14301    0.56266    0.15847   1.00
H1       0.18787    0.59043    0.16262   1.00
C2       0.12973    0.54937    0.13857   1.00
C2       0.57673    0.43862    0.20950   1.00
C3       0.51821    0.40118    0.19974   1.00
H1       0.49352    0.35456    0.20221   1.00
C3       0.61288    0.50632    0.20523   1.00
H1       0.65447    0.53329    0.21166   1.00
C3a      0.49282    0.42871    0.18605   1.00
H1       0.45199    0.40253    0.17916   1.00
C3b      0.58950    0.53615    0.19156   1.00
H1       0.61499    0.58235    0.18851   1.00
C6       0.52935    0.49708    0.18151   1.00
C6       0.50440    0.52846    0.16654   1.00
C3c      0.51936    0.52957    0.14612   1.00
H1       0.54949    0.51541    0.14190   1.00
C3d      0.46467    0.55497    0.17371   1.00
H1       0.45311    0.55448    0.18726   1.00
C3       0.49251    0.55636    0.13247   1.00
H1       0.50333    0.55818    0.11877   1.00
C3       0.43734    0.58036    0.15847   1.00
H1       0.40957    0.59745    0.16262   1.00
C2       0.45063    0.58037    0.13857   1.00
C2       0.80478    0.89472    0.62384   1.00
C3       0.78370    0.93216    0.63360   1.00
H1       0.80563    0.97878    0.63113   1.00
C3       0.77323    0.82702    0.62811   1.00
H1       0.78785    0.80005    0.62168   1.00
C3a      0.73078    0.90463    0.64729   1.00
H1       0.71613    0.93081    0.65418   1.00
C3b      0.72002    0.79719    0.64178   1.00
H1       0.69930    0.75099    0.64483   1.00
C6       0.69894    0.83626    0.65183   1.00
C6       0.64261    0.80488    0.66680   1.00
C3c      0.65646    0.80377    0.68722   1.00
H1       0.70075    0.81793    0.69144   1.00
C3d      0.57637    0.77837    0.65963   1.00
H1       0.56530    0.77886    0.64608   1.00
C3       0.60282    0.77698    0.70087   1.00
H1       0.61182    0.77516    0.71457   1.00
C3       0.52365    0.75298    0.67487   1.00
H1       0.47879    0.73589    0.67072   1.00
C2       0.53693    0.75297    0.69477   1.00
C2       0.08993    0.19522    0.62384   1.00
C3       0.14845    0.21630    0.63360   1.00
H1       0.17314    0.19437    0.63113   1.00
C3       0.05378    0.22677    0.62811   1.00
H1       0.01219    0.21215    0.62168   1.00
C3a      0.17384    0.26922    0.64729   1.00
H1       0.21467    0.28387    0.65418   1.00
C3b      0.07716    0.27998    0.64178   1.00
H1       0.05167    0.30070    0.64483   1.00
C6       0.13731    0.30106    0.65183   1.00
C6       0.16226    0.35739    0.66680   1.00
C3c      0.14730    0.34354    0.68722   1.00
H1       0.11717    0.29925    0.69144   1.00
C3d      0.20199    0.42363    0.65963   1.00
H1       0.21355    0.43470    0.64608   1.00
C3       0.17415    0.39718    0.70087   1.00
H1       0.16333    0.38818    0.71457   1.00
C3       0.22932    0.47635    0.67487   1.00
H1       0.25709    0.52121    0.67072   1.00
C2       0.21603    0.46307    0.69477   1.00
C2       0.10528    0.91007    0.62384   1.00
C3       0.06784    0.85155    0.63360   1.00
H1       0.02122    0.82686    0.63113   1.00
C3       0.17298    0.94622    0.62811   1.00
H1       0.19995    0.98781    0.62168   1.00
C3a      0.09537    0.82616    0.64729   1.00
H1       0.06919    0.78533    0.65418   1.00
C3b      0.20281    0.92284    0.64178   1.00
H1       0.24901    0.94833    0.64483   1.00
C6       0.16374    0.86269    0.65183   1.00
C6       0.19512    0.83774    0.66680   1.00
C3c      0.19623    0.85270    0.68722   1.00
H1       0.18207    0.88283    0.69144   1.00
C3d      0.22163    0.79801    0.65963   1.00
H1       0.22114    0.78645    0.64608   1.00
C3       0.22302    0.82585    0.70087   1.00
H1       0.22484    0.83667    0.71457   1.00
C3       0.24702    0.77068    0.67487   1.00
H1       0.26411    0.74291    0.67072   1.00
C2       0.24703    0.78397    0.69477   1.00
