data_IRMOF10_interpen_symm_ligand2cp_label_l.

_audit_creation_method             'generated by an auxiliary program of Tobunporous'

_symmetry_space_group_name_H-M     'P 1'
_symmetry_Int_Tables_number        1
_symmetry_cell_setting             triclinic

_cell_length_a                    22.6523
_cell_length_b                    22.6523
_cell_length_c                    65.9502
_cell_angle_alpha                 90.0000
_cell_angle_beta                  90.0000
_cell_angle_gamma                 120.0000

loop_
_atom_site_label
_atom_site_fract_x
_atom_site_fract_y
_atom_site_fract_z
_atom_site_occupancy
O1       0.00000    0.00000    0.57470   1.00
Zn      0.00000    0.00000    0.54560   1.00
Zn      0.94843    0.04287    0.58357   1.00
Zn      0.09443    0.05157    0.58357   1.00
Zn      0.95713    0.90557    0.58357   1.00
O2       0.93860    0.02610    0.53560   1.00
O2       0.08750    0.06140    0.53560   1.00
O2       0.97390    0.91250    0.53560   1.00
O2       0.91300    0.07160    0.56150   1.00
O2       0.00463    0.12027    0.60077   1.00
O2       0.87413    0.98077    0.60037   1.00
O2       0.15860    0.08700    0.56150   1.00
O2       0.10663    0.12587    0.60037   1.00
O2       0.11563    0.99537    0.60077   1.00
O2       0.92840    0.84140    0.56150   1.00
O2       0.87973    0.88437    0.60077   1.00
O2       0.01923    0.89337    0.60037   1.00
C1       0.91390    0.06020    0.54330   1.00
C1       0.14630    0.08610    0.54330   1.00
C1       0.93980    0.85370    0.54330   1.00
C1       0.06663    0.14397    0.60637   1.00
C1       0.85603    0.92267    0.60637   1.00
C1       0.07733    0.93337    0.60637   1.00
O1       0.00000    0.00000    0.92530   1.00
Zn      0.00000    0.00000    0.95440   1.00
Zn      0.04287    0.94843    0.91643   1.00
Zn      0.05157    0.09443    0.91643   1.00
Zn      0.90557    0.95713    0.91643   1.00
O2       0.02610    0.93860    0.96440   1.00
O2       0.06140    0.08750    0.96440   1.00
O2       0.91250    0.97390    0.96440   1.00
O2       0.07160    0.91300    0.93850   1.00
O2       0.12027    0.00463    0.89923   1.00
O2       0.98077    0.87413    0.89963   1.00
O2       0.08700    0.15860    0.93850   1.00
O2       0.12587    0.10663    0.89963   1.00
O2       0.99537    0.11563    0.89923   1.00
O2       0.84140    0.92840    0.93850   1.00
O2       0.88437    0.87973    0.89923   1.00
O2       0.89337    0.01923    0.89963   1.00
C1       0.06020    0.91390    0.95670   1.00
C1       0.08610    0.14630    0.95670   1.00
C1       0.85370    0.93980    0.95670   1.00
C1       0.14397    0.06663    0.89363   1.00
C1       0.92267    0.85603    0.89363   1.00
C1       0.93337    0.07733    0.89363   1.00
O1       0.00000    0.00000    0.42530   1.00
Zn      0.00000    0.00000    0.45440   1.00
Zn      0.05157    0.95713    0.41643   1.00
Zn      0.90557    0.94843    0.41643   1.00
Zn      0.04287    0.09443    0.41643   1.00
O2       0.06140    0.97390    0.46440   1.00
O2       0.91250    0.93860    0.46440   1.00
O2       0.02610    0.08750    0.46440   1.00
O2       0.08700    0.92840    0.43850   1.00
O2       0.99537    0.87973    0.39923   1.00
O2       0.12587    0.01923    0.39963   1.00
O2       0.84140    0.91300    0.43850   1.00
O2       0.89337    0.87413    0.39963   1.00
O2       0.88437    0.00463    0.39923   1.00
O2       0.07160    0.15860    0.43850   1.00
O2       0.12027    0.11563    0.39923   1.00
O2       0.98077    0.10663    0.39963   1.00
C1       0.08610    0.93980    0.45670   1.00
C1       0.85370    0.91390    0.45670   1.00
C1       0.06020    0.14630    0.45670   1.00
C1       0.93337    0.85603    0.39363   1.00
C1       0.14397    0.07733    0.39363   1.00
C1       0.92267    0.06663    0.39363   1.00
O1       0.00000    0.00000    0.07470   1.00
Zn      0.00000    0.00000    0.04560   1.00
Zn      0.95713    0.05157    0.08357   1.00
Zn      0.94843    0.90557    0.08357   1.00
Zn      0.09443    0.04287    0.08357   1.00
O2       0.97390    0.06140    0.03560   1.00
O2       0.93860    0.91250    0.03560   1.00
O2       0.08750    0.02610    0.03560   1.00
O2       0.92840    0.08700    0.06150   1.00
O2       0.87973    0.99537    0.10077   1.00
O2       0.01923    0.12587    0.10037   1.00
O2       0.91300    0.84140    0.06150   1.00
O2       0.87413    0.89337    0.10037   1.00
O2       0.00463    0.88437    0.10077   1.00
O2       0.15860    0.07160    0.06150   1.00
O2       0.11563    0.12027    0.10077   1.00
O2       0.10663    0.98077    0.10037   1.00
C1       0.93980    0.08610    0.04330   1.00
C1       0.91390    0.85370    0.04330   1.00
C1       0.14630    0.06020    0.04330   1.00
C1       0.85603    0.93337    0.10637   1.00
C1       0.07733    0.14397    0.10637   1.00
C1       0.06663    0.92267    0.10637   1.00
O1       0.66667    0.33333    0.90803   1.00
Zn      0.66667    0.33333    0.87893   1.00
Zn      0.61510    0.37620    0.91690   1.00
Zn      0.76110    0.38490    0.91690   1.00
Zn      0.62380    0.23890    0.91690   1.00
O2       0.60527    0.35943    0.86893   1.00
O2       0.75417    0.39473    0.86893   1.00
O2       0.64057    0.24583    0.86893   1.00
O2       0.57967    0.40493    0.89483   1.00
O2       0.67130    0.45360    0.93410   1.00
O2       0.54080    0.31410    0.93370   1.00
O2       0.82527    0.42033    0.89483   1.00
O2       0.77330    0.45920    0.93370   1.00
O2       0.78230    0.32870    0.93410   1.00
O2       0.59507    0.17473    0.89483   1.00
O2       0.54640    0.21770    0.93410   1.00
O2       0.68590    0.22670    0.93370   1.00
C1       0.58057    0.39353    0.87663   1.00
C1       0.81297    0.41943    0.87663   1.00
C1       0.60647    0.18703    0.87663   1.00
C1       0.73330    0.47730    0.93970   1.00
C1       0.52270    0.25600    0.93970   1.00
C1       0.74400    0.26670    0.93970   1.00
O1       0.66667    0.33333    0.25863   1.00
Zn      0.66667    0.33333    0.28773   1.00
Zn      0.70953    0.28177    0.24977   1.00
Zn      0.71823    0.42777    0.24977   1.00
Zn      0.57223    0.29047    0.24977   1.00
O2       0.69277    0.27193    0.29773   1.00
O2       0.72807    0.42083    0.29773   1.00
O2       0.57917    0.30723    0.29773   1.00
O2       0.73827    0.24633    0.27183   1.00
O2       0.78693    0.33797    0.23257   1.00
O2       0.64743    0.20747    0.23297   1.00
O2       0.75367    0.49193    0.27183   1.00
O2       0.79253    0.43997    0.23297   1.00
O2       0.66203    0.44897    0.23257   1.00
O2       0.50807    0.26173    0.27183   1.00
O2       0.55103    0.21307    0.23257   1.00
O2       0.56003    0.35257    0.23297   1.00
C1       0.72687    0.24723    0.29003   1.00
C1       0.75277    0.47963    0.29003   1.00
C1       0.52037    0.27313    0.29003   1.00
C1       0.81063    0.39997    0.22697   1.00
C1       0.58933    0.18937    0.22697   1.00
C1       0.60003    0.41067    0.22697   1.00
O1       0.66667    0.33333    0.75863   1.00
Zn      0.66667    0.33333    0.78773   1.00
Zn      0.71823    0.29047    0.74977   1.00
Zn      0.57223    0.28177    0.74977   1.00
Zn      0.70953    0.42777    0.74977   1.00
O2       0.72807    0.30723    0.79773   1.00
O2       0.57917    0.27193    0.79773   1.00
O2       0.69277    0.42083    0.79773   1.00
O2       0.75367    0.26173    0.77183   1.00
O2       0.66203    0.21307    0.73257   1.00
O2       0.79253    0.35257    0.73297   1.00
O2       0.50807    0.24633    0.77183   1.00
O2       0.56003    0.20747    0.73297   1.00
O2       0.55103    0.33797    0.73257   1.00
O2       0.73827    0.49193    0.77183   1.00
O2       0.78693    0.44897    0.73257   1.00
O2       0.64743    0.43997    0.73297   1.00
C1       0.75277    0.27313    0.79003   1.00
C1       0.52037    0.24723    0.79003   1.00
C1       0.72687    0.47963    0.79003   1.00
C1       0.60003    0.18937    0.72697   1.00
C1       0.81063    0.41067    0.72697   1.00
C1       0.58933    0.39997    0.72697   1.00
O1       0.66667    0.33333    0.40803   1.00
Zn      0.66667    0.33333    0.37893   1.00
Zn      0.62380    0.38490    0.41690   1.00
Zn      0.61510    0.23890    0.41690   1.00
Zn      0.76110    0.37620    0.41690   1.00
O2       0.64057    0.39473    0.36893   1.00
O2       0.60527    0.24583    0.36893   1.00
O2       0.75417    0.35943    0.36893   1.00
O2       0.59507    0.42033    0.39483   1.00
O2       0.54640    0.32870    0.43410   1.00
O2       0.68590    0.45920    0.43370   1.00
O2       0.57967    0.17473    0.39483   1.00
O2       0.54080    0.22670    0.43370   1.00
O2       0.67130    0.21770    0.43410   1.00
O2       0.82527    0.40493    0.39483   1.00
O2       0.78230    0.45360    0.43410   1.00
O2       0.77330    0.31410    0.43370   1.00
C1       0.60647    0.41943    0.37663   1.00
C1       0.58057    0.18703    0.37663   1.00
C1       0.81297    0.39353    0.37663   1.00
C1       0.52270    0.26670    0.43970   1.00
C1       0.74400    0.47730    0.43970   1.00
C1       0.73330    0.25600    0.43970   1.00
O1       0.33333    0.66667    0.24137   1.00
Zn      0.33333    0.66667    0.21227   1.00
Zn      0.28177    0.70953    0.25023   1.00
Zn      0.42777    0.71823    0.25023   1.00
Zn      0.29047    0.57223    0.25023   1.00
O2       0.27193    0.69277    0.20227   1.00
O2       0.42083    0.72807    0.20227   1.00
O2       0.30723    0.57917    0.20227   1.00
O2       0.24633    0.73827    0.22817   1.00
O2       0.33797    0.78693    0.26743   1.00
O2       0.20747    0.64743    0.26703   1.00
O2       0.49193    0.75367    0.22817   1.00
O2       0.43997    0.79253    0.26703   1.00
O2       0.44897    0.66203    0.26743   1.00
O2       0.26173    0.50807    0.22817   1.00
O2       0.21307    0.55103    0.26743   1.00
O2       0.35257    0.56003    0.26703   1.00
C1       0.24723    0.72687    0.20997   1.00
C1       0.47963    0.75277    0.20997   1.00
C1       0.27313    0.52037    0.20997   1.00
C1       0.39997    0.81063    0.27303   1.00
C1       0.18937    0.58933    0.27303   1.00
C1       0.41067    0.60003    0.27303   1.00
O1       0.33333    0.66667    0.59197   1.00
Zn      0.33333    0.66667    0.62107   1.00
Zn      0.37620    0.61510    0.58310   1.00
Zn      0.38490    0.76110    0.58310   1.00
Zn      0.23890    0.62380    0.58310   1.00
O2       0.35943    0.60527    0.63107   1.00
O2       0.39473    0.75417    0.63107   1.00
O2       0.24583    0.64057    0.63107   1.00
O2       0.40493    0.57967    0.60517   1.00
O2       0.45360    0.67130    0.56590   1.00
O2       0.31410    0.54080    0.56630   1.00
O2       0.42033    0.82527    0.60517   1.00
O2       0.45920    0.77330    0.56630   1.00
O2       0.32870    0.78230    0.56590   1.00
O2       0.17473    0.59507    0.60517   1.00
O2       0.21770    0.54640    0.56590   1.00
O2       0.22670    0.68590    0.56630   1.00
C1       0.39353    0.58057    0.62337   1.00
C1       0.41943    0.81297    0.62337   1.00
C1       0.18703    0.60647    0.62337   1.00
C1       0.47730    0.73330    0.56030   1.00
C1       0.25600    0.52270    0.56030   1.00
C1       0.26670    0.74400    0.56030   1.00
O1       0.33333    0.66667    0.09197   1.00
Zn      0.33333    0.66667    0.12107   1.00
Zn      0.38490    0.62380    0.08310   1.00
Zn      0.23890    0.61510    0.08310   1.00
Zn      0.37620    0.76110    0.08310   1.00
O2       0.39473    0.64057    0.13107   1.00
O2       0.24583    0.60527    0.13107   1.00
O2       0.35943    0.75417    0.13107   1.00
O2       0.42033    0.59507    0.10517   1.00
O2       0.32870    0.54640    0.06590   1.00
O2       0.45920    0.68590    0.06630   1.00
O2       0.17473    0.57967    0.10517   1.00
O2       0.22670    0.54080    0.06630   1.00
O2       0.21770    0.67130    0.06590   1.00
O2       0.40493    0.82527    0.10517   1.00
O2       0.45360    0.78230    0.06590   1.00
O2       0.31410    0.77330    0.06630   1.00
C1       0.41943    0.60647    0.12337   1.00
C1       0.18703    0.58057    0.12337   1.00
C1       0.39353    0.81297    0.12337   1.00
C1       0.26670    0.52270    0.06030   1.00
C1       0.47730    0.74400    0.06030   1.00
C1       0.25600    0.73330    0.06030   1.00
O1       0.33333    0.66667    0.74137   1.00
Zn      0.33333    0.66667    0.71227   1.00
Zn      0.29047    0.71823    0.75023   1.00
Zn      0.28177    0.57223    0.75023   1.00
Zn      0.42777    0.70953    0.75023   1.00
O2       0.30723    0.72807    0.70227   1.00
O2       0.27193    0.57917    0.70227   1.00
O2       0.42083    0.69277    0.70227   1.00
O2       0.26173    0.75367    0.72817   1.00
O2       0.21307    0.66203    0.76743   1.00
O2       0.35257    0.79253    0.76703   1.00
O2       0.24633    0.50807    0.72817   1.00
O2       0.20747    0.56003    0.76703   1.00
O2       0.33797    0.55103    0.76743   1.00
O2       0.49193    0.73827    0.72817   1.00
O2       0.44897    0.78693    0.76743   1.00
O2       0.43997    0.64743    0.76703   1.00
C1       0.27313    0.75277    0.70997   1.00
C1       0.24723    0.52037    0.70997   1.00
C1       0.47963    0.72687    0.70997   1.00
C1       0.18937    0.60003    0.77303   1.00
C1       0.41067    0.81063    0.77303   1.00
C1       0.39997    0.58933    0.77303   1.00
C2       0.79939    0.54456    0.45222   1.00
C3       0.82161    0.60973    0.44802   1.00
H1       0.82130    0.62228    0.43461   1.00
C3       0.79852    0.52708    0.47197   1.00
H1       0.78223    0.48160    0.47528   1.00
C3a      0.84486    0.65938    0.46275   1.00
H1       0.86021    0.70496    0.45983   1.00
C3b      0.82120    0.57512    0.48727   1.00
H1       0.81958    0.56262    0.50078   1.00
C6       0.84364    0.64206    0.48279   1.00
C6       0.86698    0.69384    0.49916   1.00
C3c      0.82214    0.71113    0.50798   1.00
H1       0.77600    0.68659    0.50478   1.00
C3d      0.93512    0.72494    0.50488   1.00
H1       0.96672    0.71507    0.49915   1.00
C3       0.84648    0.76199    0.52254   1.00
H1       0.81628    0.77300    0.52873   1.00
C3       0.95674    0.77850    0.51976   1.00
H1       0.00219    0.80134    0.52374   1.00
C2       0.91370    0.79640    0.52810   1.00
C2       0.45544    0.25483    0.45222   1.00
C3       0.39027    0.21188    0.44802   1.00
H1       0.37772    0.19902    0.43461   1.00
C3       0.47292    0.27144    0.47197   1.00
H1       0.51840    0.30063    0.47528   1.00
C3a      0.34062    0.18548    0.46275   1.00
H1       0.29504    0.15525    0.45983   1.00
C3b      0.42488    0.24608    0.48727   1.00
H1       0.43738    0.25695    0.50078   1.00
C6       0.35794    0.20158    0.48279   1.00
C6       0.30616    0.17314    0.49916   1.00
C3c      0.28887    0.11101    0.50798   1.00
H1       0.31341    0.08941    0.50478   1.00
C3d      0.27506    0.21018    0.50488   1.00
H1       0.28493    0.25165    0.49915   1.00
C3       0.23801    0.08449    0.52254   1.00
H1       0.22700    0.04328    0.52873   1.00
C3       0.22150    0.17824    0.51976   1.00
H1       0.19866    0.20085    0.52374   1.00
C2       0.20360    0.11730    0.52810   1.00
C2       0.74517    0.20061    0.45222   1.00
C3       0.78812    0.17839    0.44802   1.00
H1       0.80098    0.17870    0.43461   1.00
C3       0.72856    0.20148    0.47197   1.00
H1       0.69937    0.21777    0.47528   1.00
C3a      0.81452    0.15514    0.46275   1.00
H1       0.84475    0.13979    0.45983   1.00
C3b      0.75392    0.17880    0.48727   1.00
H1       0.74305    0.18042    0.50078   1.00
C6       0.79842    0.15636    0.48279   1.00
C6       0.82686    0.13302    0.49916   1.00
C3c      0.88899    0.17786    0.50798   1.00
H1       0.91059    0.22400    0.50478   1.00
C3d      0.78982    0.06488    0.50488   1.00
H1       0.74835    0.03328    0.49915   1.00
C3       0.91551    0.15352    0.52254   1.00
H1       0.95672    0.18372    0.52873   1.00
C3       0.82176    0.04326    0.51976   1.00
H1       0.79915    -0.00219   0.52374   1.00
C2       0.88270    0.08630    0.52810   1.00
C2       0.54456    0.79939    0.04778   1.00
C3       0.60973    0.82161    0.05198   1.00
H1       0.62228    0.82130    0.06539   1.00
C3       0.52708    0.79852    0.02803   1.00
H1       0.48160    0.78223    0.02472   1.00
C3a      0.65938    0.84486    0.03725   1.00
H1       0.70496    0.86021    0.04017   1.00
C3b      0.57512    0.82120    0.01273   1.00
H1       0.56262    0.81958    -0.00078   1.00
C6       0.64206    0.84364    0.01721   1.00
C6       0.69384    0.86698    0.00084   1.00
C3c      0.71113    0.82214    0.99202   1.00
H1       0.68659    0.77600    0.99522   1.00
C3d      0.72494    0.93512    0.99512   1.00
H1       0.71507    0.96672    1.00085   1.00
C3       0.76199    0.84648    0.97746   1.00
H1       0.77300    0.81628    0.97127   1.00
C3       0.77850    0.95674    0.98024   1.00
H1       0.80134    0.00219    0.97626   1.00
C2       0.79640    0.91370    0.97190   1.00
C2       0.25483    0.45544    0.04778   1.00
C3       0.21188    0.39027    0.05198   1.00
H1       0.19902    0.37772    0.06539   1.00
C3       0.27144    0.47292    0.02803   1.00
H1       0.30063    0.51840    0.02472   1.00
C3a      0.18548    0.34062    0.03725   1.00
H1       0.15525    0.29504    0.04017   1.00
C3b      0.24608    0.42488    0.01273   1.00
H1       0.25695    0.43738    -0.00078   1.00
C6       0.20158    0.35794    0.01721   1.00
C6       0.17314    0.30616    0.00084   1.00
C3c      0.11101    0.28887    0.99202   1.00
H1       0.08941    0.31341    0.99522   1.00
C3d      0.21018    0.27506    0.99512   1.00
H1       0.25165    0.28493    1.00085   1.00
C3       0.08449    0.23801    0.97746   1.00
H1       0.04328    0.22700    0.97127   1.00
C3       0.17824    0.22150    0.98024   1.00
H1       0.20085    0.19866    0.97626   1.00
C2       0.11730    0.20360    0.97190   1.00
C2       0.20061    0.74517    0.04778   1.00
C3       0.17839    0.78812    0.05198   1.00
H1       0.17870    0.80098    0.06539   1.00
C3       0.20148    0.72856    0.02803   1.00
H1       0.21777    0.69937    0.02472   1.00
C3a      0.15514    0.81452    0.03725   1.00
H1       0.13979    0.84475    0.04017   1.00
C3b      0.17880    0.75392    0.01273   1.00
H1       0.18042    0.74305    -0.00078   1.00
C6       0.15636    0.79842    0.01721   1.00
C6       0.13302    0.82686    0.00084   1.00
C3c      0.17786    0.88899    0.99202   1.00
H1       0.22400    0.91059    0.99522   1.00
C3d      0.06488    0.78982    0.99512   1.00
H1       0.03328    0.74835    1.00085   1.00
C3       0.15352    0.91551    0.97746   1.00
H1       0.18372    0.95672    0.97127   1.00
C3       0.04326    0.82176    0.98024   1.00
H1       -0.00219   0.79915    0.97626   1.00
C2       0.08630    0.88270    0.97190   1.00
C2       0.20061    0.45544    0.54778   1.00
C3       0.17839    0.39027    0.55198   1.00
H1       0.17870    0.37772    0.56539   1.00
C3       0.20148    0.47292    0.52803   1.00
H1       0.21777    0.51840    0.52472   1.00
C3a      0.15514    0.34062    0.53725   1.00
H1       0.13979    0.29504    0.54017   1.00
C3b      0.17880    0.42488    0.51273   1.00
H1       0.18042    0.43738    0.49922   1.00
C6       0.15636    0.35794    0.51721   1.00
C6       0.13302    0.30616    0.50084   1.00
C3c      0.17786    0.28887    0.49202   1.00
H1       0.22400    0.31341    0.49522   1.00
C3d      0.06488    0.27506    0.49512   1.00
H1       0.03328    0.28493    0.50085   1.00
C3       0.15352    0.23801    0.47746   1.00
H1       0.18372    0.22700    0.47127   1.00
C3       0.04326    0.22150    0.48024   1.00
H1       -0.00219   0.19866    0.47626   1.00
C2       0.08630    0.20360    0.47190   1.00
C2       0.54456    0.74517    0.54778   1.00
C3       0.60973    0.78812    0.55198   1.00
H1       0.62228    0.80098    0.56539   1.00
C3       0.52708    0.72856    0.52803   1.00
H1       0.48160    0.69937    0.52472   1.00
C3a      0.65938    0.81452    0.53725   1.00
H1       0.70496    0.84475    0.54017   1.00
C3b      0.57512    0.75392    0.51273   1.00
H1       0.56262    0.74305    0.49922   1.00
C6       0.64206    0.79842    0.51721   1.00
C6       0.69384    0.82686    0.50084   1.00
C3c      0.71113    0.88899    0.49202   1.00
H1       0.68659    0.91059    0.49522   1.00
C3d      0.72494    0.78982    0.49512   1.00
H1       0.71507    0.74835    0.50085   1.00
C3       0.76199    0.91551    0.47746   1.00
H1       0.77300    0.95672    0.47127   1.00
C3       0.77850    0.82176    0.48024   1.00
H1       0.80134    0.79915    0.47626   1.00
C2       0.79640    0.88270    0.47190   1.00
C2       0.25483    0.79939    0.54778   1.00
C3       0.21188    0.82161    0.55198   1.00
H1       0.19902    0.82130    0.56539   1.00
C3       0.27144    0.79852    0.52803   1.00
H1       0.30063    0.78223    0.52472   1.00
C3a      0.18548    0.84486    0.53725   1.00
H1       0.15525    0.86021    0.54017   1.00
C3b      0.24608    0.82120    0.51273   1.00
H1       0.25695    0.81958    0.49922   1.00
C6       0.20158    0.84364    0.51721   1.00
C6       0.17314    0.86698    0.50084   1.00
C3c      0.11101    0.82214    0.49202   1.00
H1       0.08941    0.77600    0.49522   1.00
C3d      0.21018    0.93512    0.49512   1.00
H1       0.25165    0.96672    0.50085   1.00
C3       0.08449    0.84648    0.47746   1.00
H1       0.04328    0.81628    0.47127   1.00
C3       0.17824    0.95674    0.48024   1.00
H1       0.20085    0.00219    0.47626   1.00
C2       0.11730    0.91370    0.47190   1.00
C2       0.45544    0.20061    0.95222   1.00
C3       0.39027    0.17839    0.94802   1.00
H1       0.37772    0.17870    0.93461   1.00
C3       0.47292    0.20148    0.97197   1.00
H1       0.51840    0.21777    0.97528   1.00
C3a      0.34062    0.15514    0.96275   1.00
H1       0.29504    0.13979    0.95983   1.00
C3b      0.42488    0.17880    0.98727   1.00
H1       0.43738    0.18042    1.00078   1.00
C6       0.35794    0.15636    0.98279   1.00
C6       0.30616    0.13302    0.99916   1.00
C3c      0.28887    0.17786    0.00798   1.00
H1       0.31341    0.22400    0.00478   1.00
C3d      0.27506    0.06488    0.00488   1.00
H1       0.28493    0.03328    -0.00085   1.00
C3       0.23801    0.15352    0.02254   1.00
H1       0.22700    0.18372    0.02873   1.00
C3       0.22150    0.04326    0.01976   1.00
H1       0.19866    -0.00219   0.02374   1.00
C2       0.20360    0.08630    0.02810   1.00
C2       0.74517    0.54456    0.95222   1.00
C3       0.78812    0.60973    0.94802   1.00
H1       0.80098    0.62228    0.93461   1.00
C3       0.72856    0.52708    0.97197   1.00
H1       0.69937    0.48160    0.97528   1.00
C3a      0.81452    0.65938    0.96275   1.00
H1       0.84475    0.70496    0.95983   1.00
C3b      0.75392    0.57512    0.98727   1.00
H1       0.74305    0.56262    1.00078   1.00
C6       0.79842    0.64206    0.98279   1.00
C6       0.82686    0.69384    0.99916   1.00
C3c      0.88899    0.71113    0.00798   1.00
H1       0.91059    0.68659    0.00478   1.00
C3d      0.78982    0.72494    0.00488   1.00
H1       0.74835    0.71507    -0.00085   1.00
C3       0.91551    0.76199    0.02254   1.00
H1       0.95672    0.77300    0.02873   1.00
C3       0.82176    0.77850    0.01976   1.00
H1       0.79915    0.80134    0.02374   1.00
C2       0.88270    0.79640    0.02810   1.00
C2       0.79939    0.25483    0.95222   1.00
C3       0.82161    0.21188    0.94802   1.00
H1       0.82130    0.19902    0.93461   1.00
C3       0.79852    0.27144    0.97197   1.00
H1       0.78223    0.30063    0.97528   1.00
C3a      0.84486    0.18548    0.96275   1.00
H1       0.86021    0.15525    0.95983   1.00
C3b      0.82120    0.24608    0.98727   1.00
H1       0.81958    0.25695    1.00078   1.00
C6       0.84364    0.20158    0.98279   1.00
C6       0.86698    0.17314    0.99916   1.00
C3c      0.82214    0.11101    0.00798   1.00
H1       0.77600    0.08941    0.00478   1.00
C3d      0.93512    0.21018    0.00488   1.00
H1       0.96672    0.25165    -0.00085   1.00
C3       0.84648    0.08449    0.02254   1.00
H1       0.81628    0.04328    0.02873   1.00
C3       0.95674    0.17824    0.01976   1.00
H1       0.00219    0.20085    0.02374   1.00
C2       0.91370    0.11730    0.02810   1.00
C2       0.46606    0.87789    0.78555   1.00
C3       0.48828    0.94306    0.78135   1.00
H1       0.48797    0.95561    0.76794   1.00
C3       0.46519    0.86041    0.80530   1.00
H1       0.44890    0.81493    0.80861   1.00
C3a      0.51153    0.99271    0.79608   1.00
H1       0.52688    1.03829    0.79316   1.00
C3b      0.48787    0.90845    0.82060   1.00
H1       0.48625    0.89595    0.83411   1.00
C6       0.51031    0.97539    0.81612   1.00
C6       0.53365    0.02717    0.83249   1.00
C3c      0.48881    0.04446    0.84131   1.00
H1       0.44267    0.01992    0.83811   1.00
C3d      0.60179    0.05827    0.83821   1.00
H1       0.63339    0.04840    0.83248   1.00
C3       0.51315    0.09532    0.85587   1.00
H1       0.48295    0.10633    0.86206   1.00
C3       0.62341    0.11183    0.85309   1.00
H1       0.66886    0.13467    0.85707   1.00
C2       0.58037    0.12973    0.86143   1.00
C2       0.12211    0.58816    0.78555   1.00
C3       0.05694    0.54521    0.78135   1.00
H1       0.04439    0.53235    0.76794   1.00
C3       0.13959    0.60477    0.80530   1.00
H1       0.18507    0.63396    0.80861   1.00
C3a      0.00729    0.51881    0.79608   1.00
H1       -0.03829   0.48858    0.79316   1.00
C3b      0.09155    0.57941    0.82060   1.00
H1       0.10405    0.59028    0.83411   1.00
C6       0.02461    0.53491    0.81612   1.00
C6       0.97283    0.50647    0.83249   1.00
C3c      0.95554    0.44434    0.84131   1.00
H1       0.98008    0.42274    0.83811   1.00
C3d      0.94173    0.54351    0.83821   1.00
H1       0.95160    0.58498    0.83248   1.00
C3       0.90468    0.41782    0.85587   1.00
H1       0.89367    0.37661    0.86206   1.00
C3       0.88817    0.51157    0.85309   1.00
H1       0.86533    0.53418    0.85707   1.00
C2       0.87027    0.45063    0.86143   1.00
C2       0.41184    0.53394    0.78555   1.00
C3       0.45479    0.51172    0.78135   1.00
H1       0.46765    0.51203    0.76794   1.00
C3       0.39523    0.53481    0.80530   1.00
H1       0.36604    0.55110    0.80861   1.00
C3a      0.48119    0.48847    0.79608   1.00
H1       0.51142    0.47312    0.79316   1.00
C3b      0.42059    0.51213    0.82060   1.00
H1       0.40972    0.51375    0.83411   1.00
C6       0.46509    0.48969    0.81612   1.00
C6       0.49353    0.46635    0.83249   1.00
C3c      0.55566    0.51119    0.84131   1.00
H1       0.57726    0.55733    0.83811   1.00
C3d      0.45649    0.39821    0.83821   1.00
H1       0.41502    0.36661    0.83248   1.00
C3       0.58218    0.48685    0.85587   1.00
H1       0.62339    0.51705    0.86206   1.00
C3       0.48843    0.37659    0.85309   1.00
H1       0.46582    0.33114    0.85707   1.00
C2       0.54937    0.41963    0.86143   1.00
C2       0.21123    0.13272    0.38111   1.00
C3       0.27640    0.15494    0.38531   1.00
H1       0.28895    0.15463    0.39872   1.00
C3       0.19375    0.13185    0.36136   1.00
H1       0.14827    0.11556    0.35805   1.00
C3a      0.32605    0.17819    0.37058   1.00
H1       0.37163    0.19354    0.37350   1.00
C3b      0.24179    0.15453    0.34606   1.00
H1       0.22929    0.15291    0.33255   1.00
C6       0.30873    0.17697    0.35054   1.00
C6       0.36051    0.20031    0.33417   1.00
C3c      0.37780    0.15547    0.32535   1.00
H1       0.35326    0.10933    0.32855   1.00
C3d      0.39161    0.26845    0.32845   1.00
H1       0.38174    0.30005    0.33418   1.00
C3       0.42866    0.17981    0.31079   1.00
H1       0.43967    0.14961    0.30460   1.00
C3       0.44517    0.29007    0.31357   1.00
H1       0.46801    0.33552    0.30959   1.00
C2       0.46307    0.24703    0.30523   1.00
C2       0.92150    0.78877    0.38111   1.00
C3       0.87855    0.72360    0.38531   1.00
H1       0.86569    0.71105    0.39872   1.00
C3       0.93811    0.80625    0.36136   1.00
H1       0.96730    0.85173    0.35805   1.00
C3a      0.85215    0.67395    0.37058   1.00
H1       0.82192    0.62837    0.37350   1.00
C3b      0.91275    0.75821    0.34606   1.00
H1       0.92362    0.77071    0.33255   1.00
C6       0.86825    0.69127    0.35054   1.00
C6       0.83981    0.63949    0.33417   1.00
C3c      0.77768    0.62220    0.32535   1.00
H1       0.75608    0.64674    0.32855   1.00
C3d      0.87685    0.60839    0.32845   1.00
H1       0.91832    0.61826    0.33418   1.00
C3       0.75116    0.57134    0.31079   1.00
H1       0.70995    0.56033    0.30460   1.00
C3       0.84491    0.55483    0.31357   1.00
H1       0.86752    0.53199    0.30959   1.00
C2       0.78397    0.53693    0.30523   1.00
C2       0.86728    0.07850    0.38111   1.00
C3       0.84506    0.12145    0.38531   1.00
H1       0.84537    0.13431    0.39872   1.00
C3       0.86815    0.06189    0.36136   1.00
H1       0.88444    0.03270    0.35805   1.00
C3a      0.82181    0.14785    0.37058   1.00
H1       0.80646    0.17808    0.37350   1.00
C3b      0.84547    0.08725    0.34606   1.00
H1       0.84709    0.07638    0.33255   1.00
C6       0.82303    0.13175    0.35054   1.00
C6       0.79969    0.16019    0.33417   1.00
C3c      0.84453    0.22232    0.32535   1.00
H1       0.89067    0.24392    0.32855   1.00
C3d      0.73155    0.12315    0.32845   1.00
H1       0.69995    0.08168    0.33418   1.00
C3       0.82019    0.24884    0.31079   1.00
H1       0.85039    0.29005    0.30460   1.00
C3       0.70993    0.15509    0.31357   1.00
H1       0.66448    0.13248    0.30959   1.00
C2       0.75297    0.21603    0.30523   1.00
C2       0.86728    0.78877    0.88111   1.00
C3       0.84506    0.72360    0.88531   1.00
H1       0.84537    0.71105    0.89872   1.00
C3       0.86815    0.80625    0.86136   1.00
H1       0.88444    0.85173    0.85805   1.00
C3a      0.82181    0.67395    0.87058   1.00
H1       0.80646    0.62837    0.87350   1.00
C3b      0.84547    0.75821    0.84606   1.00
H1       0.84709    0.77071    0.83255   1.00
C6       0.82303    0.69127    0.85054   1.00
C6       0.79969    0.63949    0.83417   1.00
C3c      0.84453    0.62220    0.82535   1.00
H1       0.89067    0.64674    0.82855   1.00
C3d      0.73155    0.60839    0.82845   1.00
H1       0.69995    0.61826    0.83418   1.00
C3       0.82019    0.57134    0.81079   1.00
H1       0.85039    0.56033    0.80460   1.00
C3       0.70993    0.55483    0.81357   1.00
H1       0.66448    0.53199    0.80959   1.00
C2       0.75297    0.53693    0.80523   1.00
C2       0.21123    0.07850    0.88111   1.00
C3       0.27640    0.12145    0.88531   1.00
H1       0.28895    0.13431    0.89872   1.00
C3       0.19375    0.06189    0.86136   1.00
H1       0.14827    0.03270    0.85805   1.00
C3a      0.32605    0.14785    0.87058   1.00
H1       0.37163    0.17808    0.87350   1.00
C3b      0.24179    0.08725    0.84606   1.00
H1       0.22929    0.07638    0.83255   1.00
C6       0.30873    0.13175    0.85054   1.00
C6       0.36051    0.16019    0.83417   1.00
C3c      0.37780    0.22232    0.82535   1.00
H1       0.35326    0.24392    0.82855   1.00
C3d      0.39161    0.12315    0.82845   1.00
H1       0.38174    0.08168    0.83418   1.00
C3       0.42866    0.24884    0.81079   1.00
H1       0.43967    0.29005    0.80460   1.00
C3       0.44517    0.15509    0.81357   1.00
H1       0.46801    0.13248    0.80959   1.00
C2       0.46307    0.21603    0.80523   1.00
C2       0.92150    0.13272    0.88111   1.00
C3       0.87855    0.15494    0.88531   1.00
H1       0.86569    0.15463    0.89872   1.00
C3       0.93811    0.13185    0.86136   1.00
H1       0.96730    0.11556    0.85805   1.00
C3a      0.85215    0.17819    0.87058   1.00
H1       0.82192    0.19354    0.87350   1.00
C3b      0.91275    0.15453    0.84606   1.00
H1       0.92362    0.15291    0.83255   1.00
C6       0.86825    0.17697    0.85054   1.00
C6       0.83981    0.20031    0.83417   1.00
C3c      0.77768    0.15547    0.82535   1.00
H1       0.75608    0.10933    0.82855   1.00
C3d      0.87685    0.26845    0.82845   1.00
H1       0.91832    0.30005    0.83418   1.00
C3       0.75116    0.17981    0.81079   1.00
H1       0.70995    0.14961    0.80460   1.00
C3       0.84491    0.29007    0.81357   1.00
H1       0.86752    0.33552    0.80959   1.00
C2       0.78397    0.24703    0.80523   1.00
C2       0.12211    0.53394    0.28555   1.00
C3       0.05694    0.51172    0.28135   1.00
H1       0.04439    0.51203    0.26794   1.00
C3       0.13959    0.53481    0.30530   1.00
H1       0.18507    0.55110    0.30861   1.00
C3a      0.00729    0.48847    0.29608   1.00
H1       -0.03829   0.47312    0.29316   1.00
C3b      0.09155    0.51213    0.32060   1.00
H1       0.10405    0.51375    0.33411   1.00
C6       0.02461    0.48969    0.31612   1.00
C6       0.97283    0.46635    0.33249   1.00
C3c      0.95554    0.51119    0.34131   1.00
H1       0.98008    0.55733    0.33811   1.00
C3d      0.94173    0.39821    0.33821   1.00
H1       0.95160    0.36661    0.33248   1.00
C3       0.90468    0.48685    0.35587   1.00
H1       0.89367    0.51705    0.36206   1.00
C3       0.88817    0.37659    0.35309   1.00
H1       0.86533    0.33114    0.35707   1.00
C2       0.87027    0.41963    0.36143   1.00
C2       0.41184    0.87789    0.28555   1.00
C3       0.45479    0.94306    0.28135   1.00
H1       0.46765    0.95561    0.26794   1.00
C3       0.39523    0.86041    0.30530   1.00
H1       0.36604    0.81493    0.30861   1.00
C3a      0.48119    0.99271    0.29608   1.00
H1       0.51142    1.03829    0.29316   1.00
C3b      0.42059    0.90845    0.32060   1.00
H1       0.40972    0.89595    0.33411   1.00
C6       0.46509    0.97539    0.31612   1.00
C6       0.49353    0.02717    0.33249   1.00
C3c      0.55566    0.04446    0.34131   1.00
H1       0.57726    0.01992    0.33811   1.00
C3d      0.45649    0.05827    0.33821   1.00
H1       0.41502    0.04840    0.33248   1.00
C3       0.58218    0.09532    0.35587   1.00
H1       0.62339    0.10633    0.36206   1.00
C3       0.48843    0.11183    0.35309   1.00
H1       0.46582    0.13467    0.35707   1.00
C2       0.54937    0.12973    0.36143   1.00
C2       0.46606    0.58816    0.28555   1.00
C3       0.48828    0.54521    0.28135   1.00
H1       0.48797    0.53235    0.26794   1.00
C3       0.46519    0.60477    0.30530   1.00
H1       0.44890    0.63396    0.30861   1.00
C3a      0.51153    0.51881    0.29608   1.00
H1       0.52688    0.48858    0.29316   1.00
C3b      0.48787    0.57941    0.32060   1.00
H1       0.48625    0.59028    0.33411   1.00
C6       0.51031    0.53491    0.31612   1.00
C6       0.53365    0.50647    0.33249   1.00
C3c      0.48881    0.44434    0.34131   1.00
H1       0.44267    0.42274    0.33811   1.00
C3d      0.60179    0.54351    0.33821   1.00
H1       0.63339    0.58498    0.33248   1.00
C3       0.51315    0.41782    0.35587   1.00
H1       0.48295    0.37661    0.36206   1.00
C3       0.62341    0.51157    0.35309   1.00
H1       0.66886    0.53418    0.35707   1.00
C2       0.58037    0.45063    0.36143   1.00
C2       0.13272    0.21123    0.11889   1.00
C3       0.15494    0.27640    0.11469   1.00
H1       0.15463    0.28895    0.10128   1.00
C3       0.13185    0.19375    0.13864   1.00
H1       0.11556    0.14827    0.14195   1.00
C3a      0.17819    0.32605    0.12942   1.00
H1       0.19354    0.37163    0.12650   1.00
C3b      0.15453    0.24179    0.15394   1.00
H1       0.15291    0.22929    0.16745   1.00
C6       0.17697    0.30873    0.14946   1.00
C6       0.20031    0.36051    0.16583   1.00
C3c      0.15547    0.37780    0.17465   1.00
H1       0.10933    0.35326    0.17145   1.00
C3d      0.26845    0.39161    0.17155   1.00
H1       0.30005    0.38174    0.16582   1.00
C3       0.17981    0.42866    0.18921   1.00
H1       0.14961    0.43967    0.19540   1.00
C3       0.29007    0.44517    0.18643   1.00
H1       0.33552    0.46801    0.19041   1.00
C2       0.24703    0.46307    0.19477   1.00
C2       0.78877    0.92150    0.11889   1.00
C3       0.72360    0.87855    0.11469   1.00
H1       0.71105    0.86569    0.10128   1.00
C3       0.80625    0.93811    0.13864   1.00
H1       0.85173    0.96730    0.14195   1.00
C3a      0.67395    0.85215    0.12942   1.00
H1       0.62837    0.82192    0.12650   1.00
C3b      0.75821    0.91275    0.15394   1.00
H1       0.77071    0.92362    0.16745   1.00
C6       0.69127    0.86825    0.14946   1.00
C6       0.63949    0.83981    0.16583   1.00
C3c      0.62220    0.77768    0.17465   1.00
H1       0.64674    0.75608    0.17145   1.00
C3d      0.60839    0.87685    0.17155   1.00
H1       0.61826    0.91832    0.16582   1.00
C3       0.57134    0.75116    0.18921   1.00
H1       0.56033    0.70995    0.19540   1.00
C3       0.55483    0.84491    0.18643   1.00
H1       0.53199    0.86752    0.19041   1.00
C2       0.53693    0.78397    0.19477   1.00
C2       0.07850    0.86728    0.11889   1.00
C3       0.12145    0.84506    0.11469   1.00
H1       0.13431    0.84537    0.10128   1.00
C3       0.06189    0.86815    0.13864   1.00
H1       0.03270    0.88444    0.14195   1.00
C3a      0.14785    0.82181    0.12942   1.00
H1       0.17808    0.80646    0.12650   1.00
C3b      0.08725    0.84547    0.15394   1.00
H1       0.07638    0.84709    0.16745   1.00
C6       0.13175    0.82303    0.14946   1.00
C6       0.16019    0.79969    0.16583   1.00
C3c      0.22232    0.84453    0.17465   1.00
H1       0.24392    0.89067    0.17145   1.00
C3d      0.12315    0.73155    0.17155   1.00
H1       0.08168    0.69995    0.16582   1.00
C3       0.24884    0.82019    0.18921   1.00
H1       0.29005    0.85039    0.19540   1.00
C3       0.15509    0.70993    0.18643   1.00
H1       0.13248    0.66448    0.19041   1.00
C2       0.21603    0.75297    0.19477   1.00
C2       0.87789    0.46606    0.71445   1.00
C3       0.94306    0.48828    0.71865   1.00
H1       0.95561    0.48797    0.73206   1.00
C3       0.86041    0.46519    0.69470   1.00
H1       0.81493    0.44890    0.69139   1.00
C3a      0.99271    0.51153    0.70392   1.00
H1       1.03829    0.52688    0.70684   1.00
C3b      0.90845    0.48787    0.67940   1.00
H1       0.89595    0.48625    0.66589   1.00
C6       0.97539    0.51031    0.68388   1.00
C6       0.02717    0.53365    0.66751   1.00
C3c      0.04446    0.48881    0.65869   1.00
H1       0.01992    0.44267    0.66189   1.00
C3d      0.05827    0.60179    0.66179   1.00
H1       0.04840    0.63339    0.66752   1.00
C3       0.09532    0.51315    0.64413   1.00
H1       0.10633    0.48295    0.63794   1.00
C3       0.11183    0.62341    0.64691   1.00
H1       0.13467    0.66886    0.64293   1.00
C2       0.12973    0.58037    0.63857   1.00
C2       0.58816    0.12211    0.71445   1.00
C3       0.54521    0.05694    0.71865   1.00
H1       0.53235    0.04439    0.73206   1.00
C3       0.60477    0.13959    0.69470   1.00
H1       0.63396    0.18507    0.69139   1.00
C3a      0.51881    0.00729    0.70392   1.00
H1       0.48858    -0.03829   0.70684   1.00
C3b      0.57941    0.09155    0.67940   1.00
H1       0.59028    0.10405    0.66589   1.00
C6       0.53491    0.02461    0.68388   1.00
C6       0.50647    0.97283    0.66751   1.00
C3c      0.44434    0.95554    0.65869   1.00
H1       0.42274    0.98008    0.66189   1.00
C3d      0.54351    0.94173    0.66179   1.00
H1       0.58498    0.95160    0.66752   1.00
C3       0.41782    0.90468    0.64413   1.00
H1       0.37661    0.89367    0.63794   1.00
C3       0.51157    0.88817    0.64691   1.00
H1       0.53418    0.86533    0.64293   1.00
C2       0.45063    0.87027    0.63857   1.00
C2       0.53394    0.41184    0.71445   1.00
C3       0.51172    0.45479    0.71865   1.00
H1       0.51203    0.46765    0.73206   1.00
C3       0.53481    0.39523    0.69470   1.00
H1       0.55110    0.36604    0.69139   1.00
C3a      0.48847    0.48119    0.70392   1.00
H1       0.47312    0.51142    0.70684   1.00
C3b      0.51213    0.42059    0.67940   1.00
H1       0.51375    0.40972    0.66589   1.00
C6       0.48969    0.46509    0.68388   1.00
C6       0.46635    0.49353    0.66751   1.00
C3c      0.51119    0.55566    0.65869   1.00
H1       0.55733    0.57726    0.66189   1.00
C3d      0.39821    0.45649    0.66179   1.00
H1       0.36661    0.41502    0.66752   1.00
C3       0.48685    0.58218    0.64413   1.00
H1       0.51705    0.62339    0.63794   1.00
C3       0.37659    0.48843    0.64691   1.00
H1       0.33114    0.46582    0.64293   1.00
C2       0.41963    0.54937    0.63857   1.00
C2       0.53394    0.12211    0.21445   1.00
C3       0.51172    0.05694    0.21865   1.00
H1       0.51203    0.04439    0.23206   1.00
C3       0.53481    0.13959    0.19470   1.00
H1       0.55110    0.18507    0.19139   1.00
C3a      0.48847    0.00729    0.20392   1.00
H1       0.47312    -0.03829   0.20684   1.00
C3b      0.51213    0.09155    0.17940   1.00
H1       0.51375    0.10405    0.16589   1.00
C6       0.48969    0.02461    0.18388   1.00
C6       0.46635    0.97283    0.16751   1.00
C3c      0.51119    0.95554    0.15869   1.00
H1       0.55733    0.98008    0.16189   1.00
C3d      0.39821    0.94173    0.16179   1.00
H1       0.36661    0.95160    0.16752   1.00
C3       0.48685    0.90468    0.14413   1.00
H1       0.51705    0.89367    0.13794   1.00
C3       0.37659    0.88817    0.14691   1.00
H1       0.33114    0.86533    0.14293   1.00
C2       0.41963    0.87027    0.13857   1.00
C2       0.87789    0.41184    0.21445   1.00
C3       0.94306    0.45479    0.21865   1.00
H1       0.95561    0.46765    0.23206   1.00
C3       0.86041    0.39523    0.19470   1.00
H1       0.81493    0.36604    0.19139   1.00
C3a      0.99271    0.48119    0.20392   1.00
H1       1.03829    0.51142    0.20684   1.00
C3b      0.90845    0.42059    0.17940   1.00
H1       0.89595    0.40972    0.16589   1.00
C6       0.97539    0.46509    0.18388   1.00
C6       0.02717    0.49353    0.16751   1.00
C3c      0.04446    0.55566    0.15869   1.00
H1       0.01992    0.57726    0.16189   1.00
C3d      0.05827    0.45649    0.16179   1.00
H1       0.04840    0.41502    0.16752   1.00
C3       0.09532    0.58218    0.14413   1.00
H1       0.10633    0.62339    0.13794   1.00
C3       0.11183    0.48843    0.14691   1.00
H1       0.13467    0.46582    0.14293   1.00
C2       0.12973    0.54937    0.13857   1.00
C2       0.58816    0.46606    0.21445   1.00
C3       0.54521    0.48828    0.21865   1.00
H1       0.53235    0.48797    0.23206   1.00
C3       0.60477    0.46519    0.19470   1.00
H1       0.63396    0.44890    0.19139   1.00
C3a      0.51881    0.51153    0.20392   1.00
H1       0.48858    0.52688    0.20684   1.00
C3b      0.57941    0.48787    0.17940   1.00
H1       0.59028    0.48625    0.16589   1.00
C6       0.53491    0.51031    0.18388   1.00
C6       0.50647    0.53365    0.16751   1.00
C3c      0.44434    0.48881    0.15869   1.00
H1       0.42274    0.44267    0.16189   1.00
C3d      0.54351    0.60179    0.16179   1.00
H1       0.58498    0.63339    0.16752   1.00
C3       0.41782    0.51315    0.14413   1.00
H1       0.37661    0.48295    0.13794   1.00
C3       0.51157    0.62341    0.14691   1.00
H1       0.53418    0.66886    0.14293   1.00
C2       0.45063    0.58037    0.13857   1.00
C2       0.78877    0.86728    0.61889   1.00
C3       0.72360    0.84506    0.61469   1.00
H1       0.71105    0.84537    0.60128   1.00
C3       0.80625    0.86815    0.63864   1.00
H1       0.85173    0.88444    0.64195   1.00
C3a      0.67395    0.82181    0.62942   1.00
H1       0.62837    0.80646    0.62650   1.00
C3b      0.75821    0.84547    0.65394   1.00
H1       0.77071    0.84709    0.66745   1.00
C6       0.69127    0.82303    0.64946   1.00
C6       0.63949    0.79969    0.66583   1.00
C3c      0.62220    0.84453    0.67465   1.00
H1       0.64674    0.89067    0.67145   1.00
C3d      0.60839    0.73155    0.67155   1.00
H1       0.61826    0.69995    0.66582   1.00
C3       0.57134    0.82019    0.68921   1.00
H1       0.56033    0.85039    0.69540   1.00
C3       0.55483    0.70993    0.68643   1.00
H1       0.53199    0.66448    0.69041   1.00
C2       0.53693    0.75297    0.69477   1.00
C2       0.07850    0.21123    0.61889   1.00
C3       0.12145    0.27640    0.61469   1.00
H1       0.13431    0.28895    0.60128   1.00
C3       0.06189    0.19375    0.63864   1.00
H1       0.03270    0.14827    0.64195   1.00
C3a      0.14785    0.32605    0.62942   1.00
H1       0.17808    0.37163    0.62650   1.00
C3b      0.08725    0.24179    0.65394   1.00
H1       0.07638    0.22929    0.66745   1.00
C6       0.13175    0.30873    0.64946   1.00
C6       0.16019    0.36051    0.66583   1.00
C3c      0.22232    0.37780    0.67465   1.00
H1       0.24392    0.35326    0.67145   1.00
C3d      0.12315    0.39161    0.67155   1.00
H1       0.08168    0.38174    0.66582   1.00
C3       0.24884    0.42866    0.68921   1.00
H1       0.29005    0.43967    0.69540   1.00
C3       0.15509    0.44517    0.68643   1.00
H1       0.13248    0.46801    0.69041   1.00
C2       0.21603    0.46307    0.69477   1.00
C2       0.13272    0.92150    0.61889   1.00
C3       0.15494    0.87855    0.61469   1.00
H1       0.15463    0.86569    0.60128   1.00
C3       0.13185    0.93811    0.63864   1.00
H1       0.11556    0.96730    0.64195   1.00
C3a      0.17819    0.85215    0.62942   1.00
H1       0.19354    0.82192    0.62650   1.00
C3b      0.15453    0.91275    0.65394   1.00
H1       0.15291    0.92362    0.66745   1.00
C6       0.17697    0.86825    0.64946   1.00
C6       0.20031    0.83981    0.66583   1.00
C3c      0.15547    0.77768    0.67465   1.00
H1       0.10933    0.75608    0.67145   1.00
C3d      0.26845    0.87685    0.67155   1.00
H1       0.30005    0.91832    0.66582   1.00
C3       0.17981    0.75116    0.68921   1.00
H1       0.14961    0.70995    0.69540   1.00
C3       0.29007    0.84491    0.68643   1.00
H1       0.33552    0.86752    0.69041   1.00
C2       0.24703    0.78397    0.69477   1.00
