data_IRMOF10_interpen_symm_ligand11cp_label_j_1.

_audit_creation_method             'generated by an auxiliary program of Tobunporous'

_symmetry_space_group_name_H-M     'P 1'
_symmetry_Int_Tables_number        1
_symmetry_cell_setting             triclinic

_cell_length_a                    22.6523
_cell_length_b                    22.6523
_cell_length_c                    65.9502
_cell_angle_alpha                 90.0000
_cell_angle_beta                  90.0000
_cell_angle_gamma                 120.0000

loop_
_atom_site_label
_atom_site_fract_x
_atom_site_fract_y
_atom_site_fract_z
_atom_site_occupancy
O1       0.00000    0.00000    0.57470   1.00
Zn1      0.00000    0.00000    0.54560   1.00
Zn1      0.94843    0.04287    0.58357   1.00
Zn1      0.09443    0.05157    0.58357   1.00
Zn1      0.95713    0.90557    0.58357   1.00
O2       0.93860    0.02610    0.53560   1.00
O2       0.08750    0.06140    0.53560   1.00
O2       0.97390    0.91250    0.53560   1.00
O2       0.91300    0.07160    0.56150   1.00
O2       0.00463    0.12027    0.60077   1.00
O2       0.87413    0.98077    0.60037   1.00
O2       0.15860    0.08700    0.56150   1.00
O2       0.10663    0.12587    0.60037   1.00
O2       0.11563    0.99537    0.60077   1.00
O2       0.92840    0.84140    0.56150   1.00
O2       0.87973    0.88437    0.60077   1.00
O2       0.01923    0.89337    0.60037   1.00
C1       0.91390    0.06020    0.54330   1.00
C1       0.14630    0.08610    0.54330   1.00
C1       0.93980    0.85370    0.54330   1.00
C1       0.06663    0.14397    0.60637   1.00
C1       0.85603    0.92267    0.60637   1.00
C1       0.07733    0.93337    0.60637   1.00
O1       0.00000    0.00000    0.92530   1.00
Zn1      0.00000    0.00000    0.95440   1.00
Zn1      0.04287    0.94843    0.91643   1.00
Zn1      0.05157    0.09443    0.91643   1.00
Zn1      0.90557    0.95713    0.91643   1.00
O2       0.02610    0.93860    0.96440   1.00
O2       0.06140    0.08750    0.96440   1.00
O2       0.91250    0.97390    0.96440   1.00
O2       0.07160    0.91300    0.93850   1.00
O2       0.12027    0.00463    0.89923   1.00
O2       0.98077    0.87413    0.89963   1.00
O2       0.08700    0.15860    0.93850   1.00
O2       0.12587    0.10663    0.89963   1.00
O2       0.99537    0.11563    0.89923   1.00
O2       0.84140    0.92840    0.93850   1.00
O2       0.88437    0.87973    0.89923   1.00
O2       0.89337    0.01923    0.89963   1.00
C1       0.06020    0.91390    0.95670   1.00
C1       0.08610    0.14630    0.95670   1.00
C1       0.85370    0.93980    0.95670   1.00
C1       0.14397    0.06663    0.89363   1.00
C1       0.92267    0.85603    0.89363   1.00
C1       0.93337    0.07733    0.89363   1.00
O1       0.00000    0.00000    0.42530   1.00
Zn1      0.00000    0.00000    0.45440   1.00
Zn1      0.05157    0.95713    0.41643   1.00
Zn1      0.90557    0.94843    0.41643   1.00
Zn1      0.04287    0.09443    0.41643   1.00
O2       0.06140    0.97390    0.46440   1.00
O2       0.91250    0.93860    0.46440   1.00
O2       0.02610    0.08750    0.46440   1.00
O2       0.08700    0.92840    0.43850   1.00
O2       0.99537    0.87973    0.39923   1.00
O2       0.12587    0.01923    0.39963   1.00
O2       0.84140    0.91300    0.43850   1.00
O2       0.89337    0.87413    0.39963   1.00
O2       0.88437    0.00463    0.39923   1.00
O2       0.07160    0.15860    0.43850   1.00
O2       0.12027    0.11563    0.39923   1.00
O2       0.98077    0.10663    0.39963   1.00
C1       0.08610    0.93980    0.45670   1.00
C1       0.85370    0.91390    0.45670   1.00
C1       0.06020    0.14630    0.45670   1.00
C1       0.93337    0.85603    0.39363   1.00
C1       0.14397    0.07733    0.39363   1.00
C1       0.92267    0.06663    0.39363   1.00
O1       0.00000    0.00000    0.07470   1.00
Zn1      0.00000    0.00000    0.04560   1.00
Zn1      0.95713    0.05157    0.08357   1.00
Zn1      0.94843    0.90557    0.08357   1.00
Zn1      0.09443    0.04287    0.08357   1.00
O2       0.97390    0.06140    0.03560   1.00
O2       0.93860    0.91250    0.03560   1.00
O2       0.08750    0.02610    0.03560   1.00
O2       0.92840    0.08700    0.06150   1.00
O2       0.87973    0.99537    0.10077   1.00
O2       0.01923    0.12587    0.10037   1.00
O2       0.91300    0.84140    0.06150   1.00
O2       0.87413    0.89337    0.10037   1.00
O2       0.00463    0.88437    0.10077   1.00
O2       0.15860    0.07160    0.06150   1.00
O2       0.11563    0.12027    0.10077   1.00
O2       0.10663    0.98077    0.10037   1.00
C1       0.93980    0.08610    0.04330   1.00
C1       0.91390    0.85370    0.04330   1.00
C1       0.14630    0.06020    0.04330   1.00
C1       0.85603    0.93337    0.10637   1.00
C1       0.07733    0.14397    0.10637   1.00
C1       0.06663    0.92267    0.10637   1.00
O1       0.66667    0.33333    0.90803   1.00
Zn1      0.66667    0.33333    0.87893   1.00
Zn1      0.61510    0.37620    0.91690   1.00
Zn1      0.76110    0.38490    0.91690   1.00
Zn1      0.62380    0.23890    0.91690   1.00
O2       0.60527    0.35943    0.86893   1.00
O2       0.75417    0.39473    0.86893   1.00
O2       0.64057    0.24583    0.86893   1.00
O2       0.57967    0.40493    0.89483   1.00
O2       0.67130    0.45360    0.93410   1.00
O2       0.54080    0.31410    0.93370   1.00
O2       0.82527    0.42033    0.89483   1.00
O2       0.77330    0.45920    0.93370   1.00
O2       0.78230    0.32870    0.93410   1.00
O2       0.59507    0.17473    0.89483   1.00
O2       0.54640    0.21770    0.93410   1.00
O2       0.68590    0.22670    0.93370   1.00
C1       0.58057    0.39353    0.87663   1.00
C1       0.81297    0.41943    0.87663   1.00
C1       0.60647    0.18703    0.87663   1.00
C1       0.73330    0.47730    0.93970   1.00
C1       0.52270    0.25600    0.93970   1.00
C1       0.74400    0.26670    0.93970   1.00
O1       0.66667    0.33333    0.25863   1.00
Zn1      0.66667    0.33333    0.28773   1.00
Zn1      0.70953    0.28177    0.24977   1.00
Zn1      0.71823    0.42777    0.24977   1.00
Zn1      0.57223    0.29047    0.24977   1.00
O2       0.69277    0.27193    0.29773   1.00
O2       0.72807    0.42083    0.29773   1.00
O2       0.57917    0.30723    0.29773   1.00
O2       0.73827    0.24633    0.27183   1.00
O2       0.78693    0.33797    0.23257   1.00
O2       0.64743    0.20747    0.23297   1.00
O2       0.75367    0.49193    0.27183   1.00
O2       0.79253    0.43997    0.23297   1.00
O2       0.66203    0.44897    0.23257   1.00
O2       0.50807    0.26173    0.27183   1.00
O2       0.55103    0.21307    0.23257   1.00
O2       0.56003    0.35257    0.23297   1.00
C1       0.72687    0.24723    0.29003   1.00
C1       0.75277    0.47963    0.29003   1.00
C1       0.52037    0.27313    0.29003   1.00
C1       0.81063    0.39997    0.22697   1.00
C1       0.58933    0.18937    0.22697   1.00
C1       0.60003    0.41067    0.22697   1.00
O1       0.66667    0.33333    0.75863   1.00
Zn1      0.66667    0.33333    0.78773   1.00
Zn1      0.71823    0.29047    0.74977   1.00
Zn1      0.57223    0.28177    0.74977   1.00
Zn1      0.70953    0.42777    0.74977   1.00
O2       0.72807    0.30723    0.79773   1.00
O2       0.57917    0.27193    0.79773   1.00
O2       0.69277    0.42083    0.79773   1.00
O2       0.75367    0.26173    0.77183   1.00
O2       0.66203    0.21307    0.73257   1.00
O2       0.79253    0.35257    0.73297   1.00
O2       0.50807    0.24633    0.77183   1.00
O2       0.56003    0.20747    0.73297   1.00
O2       0.55103    0.33797    0.73257   1.00
O2       0.73827    0.49193    0.77183   1.00
O2       0.78693    0.44897    0.73257   1.00
O2       0.64743    0.43997    0.73297   1.00
C1       0.75277    0.27313    0.79003   1.00
C1       0.52037    0.24723    0.79003   1.00
C1       0.72687    0.47963    0.79003   1.00
C1       0.60003    0.18937    0.72697   1.00
C1       0.81063    0.41067    0.72697   1.00
C1       0.58933    0.39997    0.72697   1.00
O1       0.66667    0.33333    0.40803   1.00
Zn1      0.66667    0.33333    0.37893   1.00
Zn1      0.62380    0.38490    0.41690   1.00
Zn1      0.61510    0.23890    0.41690   1.00
Zn1      0.76110    0.37620    0.41690   1.00
O2       0.64057    0.39473    0.36893   1.00
O2       0.60527    0.24583    0.36893   1.00
O2       0.75417    0.35943    0.36893   1.00
O2       0.59507    0.42033    0.39483   1.00
O2       0.54640    0.32870    0.43410   1.00
O2       0.68590    0.45920    0.43370   1.00
O2       0.57967    0.17473    0.39483   1.00
O2       0.54080    0.22670    0.43370   1.00
O2       0.67130    0.21770    0.43410   1.00
O2       0.82527    0.40493    0.39483   1.00
O2       0.78230    0.45360    0.43410   1.00
O2       0.77330    0.31410    0.43370   1.00
C1       0.60647    0.41943    0.37663   1.00
C1       0.58057    0.18703    0.37663   1.00
C1       0.81297    0.39353    0.37663   1.00
C1       0.52270    0.26670    0.43970   1.00
C1       0.74400    0.47730    0.43970   1.00
C1       0.73330    0.25600    0.43970   1.00
O1       0.33333    0.66667    0.24137   1.00
Zn1      0.33333    0.66667    0.21227   1.00
Zn1      0.28177    0.70953    0.25023   1.00
Zn1      0.42777    0.71823    0.25023   1.00
Zn1      0.29047    0.57223    0.25023   1.00
O2       0.27193    0.69277    0.20227   1.00
O2       0.42083    0.72807    0.20227   1.00
O2       0.30723    0.57917    0.20227   1.00
O2       0.24633    0.73827    0.22817   1.00
O2       0.33797    0.78693    0.26743   1.00
O2       0.20747    0.64743    0.26703   1.00
O2       0.49193    0.75367    0.22817   1.00
O2       0.43997    0.79253    0.26703   1.00
O2       0.44897    0.66203    0.26743   1.00
O2       0.26173    0.50807    0.22817   1.00
O2       0.21307    0.55103    0.26743   1.00
O2       0.35257    0.56003    0.26703   1.00
C1       0.24723    0.72687    0.20997   1.00
C1       0.47963    0.75277    0.20997   1.00
C1       0.27313    0.52037    0.20997   1.00
C1       0.39997    0.81063    0.27303   1.00
C1       0.18937    0.58933    0.27303   1.00
C1       0.41067    0.60003    0.27303   1.00
O1       0.33333    0.66667    0.59197   1.00
Zn1      0.33333    0.66667    0.62107   1.00
Zn1      0.37620    0.61510    0.58310   1.00
Zn1      0.38490    0.76110    0.58310   1.00
Zn1      0.23890    0.62380    0.58310   1.00
O2       0.35943    0.60527    0.63107   1.00
O2       0.39473    0.75417    0.63107   1.00
O2       0.24583    0.64057    0.63107   1.00
O2       0.40493    0.57967    0.60517   1.00
O2       0.45360    0.67130    0.56590   1.00
O2       0.31410    0.54080    0.56630   1.00
O2       0.42033    0.82527    0.60517   1.00
O2       0.45920    0.77330    0.56630   1.00
O2       0.32870    0.78230    0.56590   1.00
O2       0.17473    0.59507    0.60517   1.00
O2       0.21770    0.54640    0.56590   1.00
O2       0.22670    0.68590    0.56630   1.00
C1       0.39353    0.58057    0.62337   1.00
C1       0.41943    0.81297    0.62337   1.00
C1       0.18703    0.60647    0.62337   1.00
C1       0.47730    0.73330    0.56030   1.00
C1       0.25600    0.52270    0.56030   1.00
C1       0.26670    0.74400    0.56030   1.00
O1       0.33333    0.66667    0.09197   1.00
Zn1      0.33333    0.66667    0.12107   1.00
Zn1      0.38490    0.62380    0.08310   1.00
Zn1      0.23890    0.61510    0.08310   1.00
Zn1      0.37620    0.76110    0.08310   1.00
O2       0.39473    0.64057    0.13107   1.00
O2       0.24583    0.60527    0.13107   1.00
O2       0.35943    0.75417    0.13107   1.00
O2       0.42033    0.59507    0.10517   1.00
O2       0.32870    0.54640    0.06590   1.00
O2       0.45920    0.68590    0.06630   1.00
O2       0.17473    0.57967    0.10517   1.00
O2       0.22670    0.54080    0.06630   1.00
O2       0.21770    0.67130    0.06590   1.00
O2       0.40493    0.82527    0.10517   1.00
O2       0.45360    0.78230    0.06590   1.00
O2       0.31410    0.77330    0.06630   1.00
C1       0.41943    0.60647    0.12337   1.00
C1       0.18703    0.58057    0.12337   1.00
C1       0.39353    0.81297    0.12337   1.00
C1       0.26670    0.52270    0.06030   1.00
C1       0.47730    0.74400    0.06030   1.00
C1       0.25600    0.73330    0.06030   1.00
O1       0.33333    0.66667    0.74137   1.00
Zn1      0.33333    0.66667    0.71227   1.00
Zn1      0.29047    0.71823    0.75023   1.00
Zn1      0.28177    0.57223    0.75023   1.00
Zn1      0.42777    0.70953    0.75023   1.00
O2       0.30723    0.72807    0.70227   1.00
O2       0.27193    0.57917    0.70227   1.00
O2       0.42083    0.69277    0.70227   1.00
O2       0.26173    0.75367    0.72817   1.00
O2       0.21307    0.66203    0.76743   1.00
O2       0.35257    0.79253    0.76703   1.00
O2       0.24633    0.50807    0.72817   1.00
O2       0.20747    0.56003    0.76703   1.00
O2       0.33797    0.55103    0.76743   1.00
O2       0.49193    0.73827    0.72817   1.00
O2       0.44897    0.78693    0.76743   1.00
O2       0.43997    0.64743    0.76703   1.00
C1       0.27313    0.75277    0.70997   1.00
C1       0.24723    0.52037    0.70997   1.00
C1       0.47963    0.72687    0.70997   1.00
C1       0.18937    0.60003    0.77303   1.00
C1       0.41067    0.81063    0.77303   1.00
C1       0.39997    0.58933    0.77303   1.00
C5       0.89056    0.96307    0.49981   1.00
H2       0.86006    0.95348    0.51386   1.00
H2       0.85475    0.95304    0.48703   1.00
C5       0.94899    1.03821    0.49945   1.00
H2       0.93012    1.07242    0.49407   1.00
H2       0.99056    1.04372    0.48922   1.00
O_3      0.94676    0.70474    0.46534   1.00
C4       0.86327    0.69478    0.49831   1.00
C3c      0.85464    0.75190    0.49693   1.00
H1       0.82801    0.75719    0.48407   1.00
C3d      0.89728    0.68838    0.51533   1.00
C3       0.88087    0.80334    0.51184   1.00
O2       0.86328    0.85330    0.51075   1.00
C3       0.92458    0.74014    0.53001   1.00
H1       0.95236    0.73418    0.54242   1.00
C2       0.91697    0.79861    0.52873   1.00
C5       0.99511    0.68519    0.47046   1.00
H2       0.99213    0.64456    0.46024   1.00
H2       0.98791    0.66612    0.48638   1.00
C5       1.06551    0.74775    0.46839   1.00
H2       1.06785    0.78900    0.47817   1.00
H2       1.07237    0.76595    0.45239   1.00
C5       1.12130    0.73152    0.47440   1.00
H2       1.11896    0.69004    0.46479   1.00
H2       1.11590    0.71561    0.49058   1.00
H2       1.17244    0.77744    0.47236   1.00
C5       0.85621    0.57869    0.52583   1.00
C5       0.91370    0.91006    0.49990   1.00
H2       0.80905    0.55954    0.51658   1.00
H2       0.84587    0.59081    0.54138   1.00
H2       0.91744    0.89485    0.48406   1.00
H2       0.96541    0.93189    0.50693   1.00
H2       0.97017    1.05625    0.51499   1.00
H2       0.77644    0.43363    0.51866   1.00
H2       0.78446    0.45532    0.54545   1.00
C2       0.79148    0.54057    0.45234   1.00
C3       0.74751    0.53639    0.46816   1.00
O2       0.68819    0.47592    0.47198   1.00
C3       0.85786    0.59817    0.45160   1.00
H1       0.89214    0.60376    0.43940   1.00
C3a      0.77106    0.58822    0.48299   1.00
H1       0.73814    0.58233    0.49564   1.00
C3b      0.88186    0.64851    0.46673   1.00
C4       0.83846    0.64375    0.48262   1.00
O_3      0.91161    0.63583    0.51665   1.00
C5       0.63159    0.47838    0.46406   1.00
H2       0.62691    0.52090    0.47096   1.00
C5       0.56808    0.41029    0.46919   1.00
H2       0.63581    0.48536    0.44728   1.00
H2       0.55401    0.41199    0.48528   1.00
H2       0.58257    0.37004    0.46830   1.00
C5       0.50737    0.39315    0.45503   1.00
H2       0.49709    0.43627    0.45489   1.00
H2       0.46066    0.34637    0.46027   1.00
H2       0.51759    0.38270    0.43922   1.00
C5       0.87476    0.52283    0.52730   1.00
H2       0.91437    0.53728    0.53926   1.00
H2       0.89850    0.52107    0.51267   1.00
C5       0.81213    0.45270    0.53184   1.00
H2       0.82854    0.41479    0.53490   1.00
C5       0.29571    0.27141    0.57777   1.00
H2       0.24801    0.27254    0.57484   1.00
H2       0.33807    0.32402    0.57485   1.00
C5       0.29695    0.25126    0.60014   1.00
H2       0.31413    0.29613    0.61032   1.00
H2       0.33208    0.23054    0.60184   1.00
O_3      0.41661    0.14803    0.50119   1.00
C4       0.30425    0.16866    0.49802   1.00
C3c      0.30787    0.20777    0.51501   1.00
H1       0.35046    0.25900    0.51663   1.00
C3d      0.24783    0.10238    0.49605   1.00
C3       0.25749    0.18137    0.53023   1.00
O2       0.26005    0.22532    0.54508   1.00
C3       0.19825    0.07547    0.51137   1.00
H1       0.15718    0.02354    0.50955   1.00
C2       0.20151    0.11406    0.52876   1.00
C5       0.40068    0.08167    0.49537   1.00
H2       0.43559    0.08227    0.48334   1.00
H2       0.34729    0.05181    0.48962   1.00
C5       0.40809    0.04642    0.51400   1.00
H2       0.37465    0.04752    0.52622   1.00
H2       0.46173    0.07631    0.51950   1.00
C5       0.38928    -0.02720   0.50917   1.00
H2       0.42216    -0.02870   0.49689   1.00
H2       0.33503    -0.05771   0.50436   1.00
H2       0.39645    -0.05164   0.52285   1.00
C5       0.21338    0.07074    0.46337   1.00
C5       0.29667    0.22219    0.56203   1.00
H2       0.24379    0.12397    0.45771   1.00
H2       0.16072    0.06004    0.46689   1.00
H2       0.35021    0.23841    0.55759   1.00
H2       0.27374    0.16960    0.56850   1.00
H2       0.24488    0.21230    0.60543   1.00
H2       0.23806    0.09054    0.42026   1.00
H2       0.14785    0.04692    0.42657   1.00
C2       0.45965    0.24324    0.45239   1.00
C3       0.40567    0.25731    0.45105   1.00
O2       0.39254    0.27957    0.43303   1.00
C3       0.46261    0.20723    0.46954   1.00
H1       0.50424    0.19719    0.47128   1.00
C3a      0.35550    0.23388    0.46639   1.00
H1       0.31243    0.24167    0.46456   1.00
C3b      0.41148    0.18212    0.48444   1.00
C4       0.35728    0.19523    0.48293   1.00
O_3      0.24448    0.05998    0.48043   1.00
C5       0.41801    0.35054    0.43378   1.00
H2       0.39408    0.36419    0.44638   1.00
C5       0.40050    0.37092    0.41349   1.00
H2       0.47438    0.37885    0.43594   1.00
H2       0.34613    0.35783    0.41391   1.00
H2       0.40441    0.33827    0.40153   1.00
C5       0.44714    0.44707    0.40844   1.00
H2       0.44676    0.47876    0.42125   1.00
H2       0.42930    0.46115    0.39449   1.00
H2       0.50064    0.45918    0.40542   1.00
C5       0.20966    0.02228    0.44677   1.00
H2       0.17002    -0.03051   0.45102   1.00
H2       0.25931    0.02324    0.44633   1.00
C5       0.19418    0.04180    0.42588   1.00
H2       0.18481    0.00157    0.41460   1.00
C5       0.75807    0.07024    0.58259   1.00
H2       0.74720    0.01685    0.58123   1.00
H2       0.70799    0.06775    0.58121   1.00
C5       0.79035    0.09918    0.60355   1.00
H2       0.75037    0.08231    0.61549   1.00
H2       0.81933    0.15591    0.60304   1.00
O_3      0.87415    0.27552    0.49659   1.00
C4       0.83118    0.13550    0.49805   1.00
C3c      0.79820    0.11216    0.51681   1.00
H1       0.75178    0.11314    0.51985   1.00
C3d      0.89107    0.13288    0.49428   1.00
C3       0.82481    0.08823    0.53198   1.00
O2       0.78548    0.05856    0.54893   1.00
C3       0.91840    0.11030    0.50950   1.00
H1       0.96573    0.11148    0.50618   1.00
C2       0.88610    0.08721    0.52864   1.00
C5       0.93932    0.31467    0.48777   1.00
H2       0.93903    0.34627    0.47485   1.00
H2       0.95914    0.28140    0.48214   1.00
C5       0.98699    0.36196    0.50406   1.00
H2       0.98581    0.33050    0.51721   1.00
H2       0.96706    0.39536    0.50943   1.00
C5       1.05986    0.40489    0.49591   1.00
H2       1.06134    0.43608    0.48269   1.00
H2       1.08067    0.37168    0.49120   1.00
H2       1.09363    0.44019    0.50789   1.00
C5       0.90330    0.10971    0.46137   1.00
C5       0.80319    0.10795    0.56436   1.00
H2       0.84918    0.09268    0.45770   1.00
H2       0.90724    0.06432    0.46590   1.00
H2       0.79310    0.14901    0.55920   1.00
H2       0.85831    0.13279    0.56864   1.00
H2       0.82533    0.08020    0.60830   1.00
H2       0.86603    0.09977    0.41909   1.00
H2       0.89985    0.04451    0.42577   1.00
C2       0.75705    0.21600    0.45218   1.00
C3       0.73206    0.14512    0.45328   1.00
O2       0.69752    0.10347    0.43708   1.00
C3       0.80405    0.25855    0.46709   1.00
H1       0.82279    0.31279    0.46699   1.00
C3a      0.75559    0.11883    0.46872   1.00
H1       0.73895    0.06498    0.46867   1.00
C3b      0.82900    0.23252    0.48204   1.00
C4       0.80492    0.16219    0.48292   1.00
O_3      0.92824    0.16000    0.47668   1.00
C5       0.62670    0.06825    0.44085   1.00
H2       0.61397    0.03602    0.45476   1.00
C5       0.59232    0.02257    0.42244   1.00
H2       0.60734    0.10451    0.44276   1.00
H2       0.59704    -0.02391   0.42383   1.00
H2       0.62211    0.05045    0.40876   1.00
C5       0.51690    0.00290    0.42010   1.00
H2       0.48915    -0.01997   0.43447   1.00
H2       0.49219    -0.03478   0.40763   1.00
H2       0.51185    0.04818    0.41612   1.00
C5       0.94640    0.14137    0.44249   1.00
H2       0.99778    0.14752    0.44508   1.00
H2       0.95379    0.19353    0.44057   1.00
C5       0.91301    0.09838    0.42338   1.00
H2       0.94889    0.11903    0.41037   1.00
C5       0.97090    0.91047    0.00249   1.00
H2       0.96344    0.87778    -0.01092   1.00
H2       0.96325    0.87795    0.01597   1.00
C5       1.04422    0.97240    0.00229   1.00
H2       1.08115    0.95816    0.00847   1.00
H2       1.04660    1.01459    0.01158   1.00
O_3      0.69836    0.95032    0.03273   1.00
C4       0.69481    0.86323    0.00170   1.00
C3c      0.75472    0.85982    0.00390   1.00
H1       0.76223    0.83731    0.01741   1.00
C3d      0.68559    0.89188    -0.01615   1.00
C3       0.80609    0.88607    -0.01103   1.00
O2       0.85928    0.87347    -0.00898   1.00
C3       0.73721    0.91923    -0.03087   1.00
H1       0.72891    0.94287    -0.04398   1.00
C2       0.79844    0.91688    -0.02878   1.00
C5       0.67431    0.99397    0.02628   1.00
H2       0.63234    0.98988    0.03610   1.00
H2       0.65520    0.98243    0.01035   1.00
C5       0.73362    1.06667    0.02736   1.00
H2       0.77627    1.07029    0.01800   1.00
H2       0.75187    1.07784    0.04336   1.00
C5       0.71243    1.11753    0.01988   1.00
H2       0.66954    1.11386    0.02907   1.00
H2       0.69645    1.10790    0.00369   1.00
H2       0.75602    1.17048    0.02121   1.00
C5       0.57514    0.84179    -0.02685   1.00
C5       0.91410    0.92834    0.00127   1.00
H2       0.55894    0.79700    -0.01673   1.00
H2       0.58861    0.82981    -0.04199   1.00
H2       0.89794    0.93381    0.01682   1.00
H2       0.93271    0.97813    -0.00672   1.00
H2       1.06136    0.99103    -0.01351   1.00
H2       0.43094    0.75535    -0.01941   1.00
H2       0.45296    0.75948    -0.04609   1.00
C2       0.54027    0.79131    0.04756   1.00
C3       0.53949    0.74584    0.03277   1.00
O2       0.48147    0.68355    0.02970   1.00
C3       0.59476    0.85952    0.04737   1.00
H1       0.59778    0.89514    0.05880   1.00
C3a      0.59147    0.76958    0.01799   1.00
H1       0.58804    0.73515    0.00608   1.00
C3b      0.64517    0.88351    0.03226   1.00
C4       0.64375    0.83852    0.01738   1.00
O_3      0.62997    0.90112    -0.01838   1.00
C5       0.48844    0.63120    0.03897   1.00
H2       0.53294    0.62877    0.03266   1.00
C5       0.42286    0.56403    0.03460   1.00
H2       0.49525    0.63909    0.05568   1.00
H2       0.42583    0.54756    0.01890   1.00
H2       0.37997    0.57485    0.03471   1.00
C5       0.40978    0.50742    0.04997   1.00
H2       0.45531    0.50107    0.05082   1.00
H2       0.36498    0.45800    0.04533   1.00
H2       0.39805    0.51946    0.06538   1.00
C5       0.51575    0.85476    -0.02937   1.00
H2       0.52769    0.89143    -0.04208   1.00
H2       0.51197    0.88019    -0.01536   1.00
C5       0.44799    0.78840    -0.03319   1.00
H2       0.40739    0.80044    -0.03704   1.00
C5       0.27112    0.29594    -0.07784   1.00
H2       0.27236    0.24828    -0.07492   1.00
H2       0.32371    0.33836    -0.07493   1.00
C5       0.25083    0.29713    -0.10019   1.00
H2       0.29566    0.31439    -0.11040   1.00
H2       0.23001    0.33219    -0.10187   1.00
O_3      0.14776    0.41645    -0.00114   1.00
C4       0.16866    0.30425    0.00197   1.00
C3c      0.20772    0.30794    -0.01503   1.00
H1       0.25891    0.35060    -0.01667   1.00
C3d      0.10244    0.24775    0.00397   1.00
C3       0.18131    0.25756    -0.03025   1.00
O2       0.22522    0.26022    -0.04513   1.00
C3       0.07553    0.19817    -0.01135   1.00
H1       0.02364    0.15704    -0.00951   1.00
C2       0.11406    0.20150    -0.02875   1.00
C5       0.08140    0.40040    0.00471   1.00
H2       0.08199    0.43527    0.01675   1.00
H2       0.05165    0.34701    0.01047   1.00
C5       0.04601    0.40774    -0.01390   1.00
H2       0.04711    0.37433    -0.02612   1.00
H2       0.07578    0.46138    -0.01939   1.00
C5       -0.02763   0.38879    -0.00903   1.00
H2       -0.02914   0.42164    0.00327   1.00
H2       -0.05804   0.33453    -0.00421   1.00
H2       -0.05218   0.39590    -0.02269   1.00
C5       0.07101    0.21327    0.03666   1.00
C5       0.22193    0.29679    -0.06206   1.00
H2       0.12426    0.24376    0.04230   1.00
H2       0.06038    0.16065    0.03313   1.00
H2       0.23808    0.35031    -0.05762   1.00
H2       0.16930    0.27378    -0.06851   1.00
H2       0.21192    0.24503    -0.10548   1.00
H2       0.09100    0.23797    0.07977   1.00
H2       0.04749    0.14776    0.07345   1.00
C2       0.24324    0.45964    0.04761   1.00
C3       0.25744    0.40574    0.04893   1.00
O2       0.27984    0.39268    0.06693   1.00
C3       0.20709    0.46253    0.03049   1.00
H1       0.19695    0.50409    0.02877   1.00
C3a      0.23401    0.35558    0.03359   1.00
H1       0.24190    0.31257    0.03540   1.00
C3b      0.18198    0.41139    0.01559   1.00
C4       0.19522    0.35728    0.01707   1.00
O_3      0.06009    0.24432    0.01962   1.00
C5       0.35082    0.41826    0.06614   1.00
H2       0.36448    0.39439    0.05353   1.00
C5       0.37137    0.40081    0.08642   1.00
H2       0.37904    0.47464    0.06398   1.00
H2       0.35837    0.34647    0.08599   1.00
H2       0.33874    0.40465    0.09839   1.00
C5       0.44752    0.44756    0.09143   1.00
H2       0.47918    0.44724    0.07860   1.00
H2       0.46173    0.42976    0.10537   1.00
H2       0.45955    0.50103    0.09446   1.00
C5       0.02259    0.20946    0.05329   1.00
H2       -0.03019   0.16975    0.04906   1.00
H2       0.02345    0.25906    0.05374   1.00
C5       0.04227    0.19403    0.07417   1.00
H2       0.00208    0.18459    0.08547   1.00
C5       0.07023    0.75807    -0.08259   1.00
H2       0.01684    0.74720    -0.08123   1.00
H2       0.06775    0.70798    -0.08121   1.00
C5       0.09917    0.79035    -0.10355   1.00
H2       0.08230    0.75037    -0.11549   1.00
H2       0.15590    0.81932    -0.10304   1.00
O_3      0.27552    0.87414    0.00341   1.00
C4       0.13550    0.83118    0.00195   1.00
C3c      0.11216    0.79820    -0.01681   1.00
H1       0.11314    0.75178    -0.01985   1.00
C3d      0.13288    0.89107    0.00572   1.00
C3       0.08823    0.82481    -0.03198   1.00
O2       0.05855    0.78548    -0.04893   1.00
C3       0.11030    0.91840    -0.00950   1.00
H1       0.11149    0.96573    -0.00618   1.00
C2       0.08721    0.88610    -0.02864   1.00
C5       0.31467    0.93932    0.01223   1.00
H2       0.34628    0.93902    0.02515   1.00
H2       0.28140    0.95913    0.01786   1.00
C5       0.36196    0.98698    -0.00406   1.00
H2       0.33050    0.98580    -0.01721   1.00
H2       0.39536    0.96705    -0.00943   1.00
C5       0.40489    1.05986    0.00409   1.00
H2       0.43608    1.06134    0.01731   1.00
H2       0.37168    1.08067    0.00880   1.00
H2       0.44019    1.09362    -0.00789   1.00
C5       0.10972    0.90330    0.03863   1.00
C5       0.10795    0.80319    -0.06436   1.00
H2       0.09268    0.84918    0.04230   1.00
H2       0.06432    0.90724    0.03410   1.00
H2       0.14901    0.79310    -0.05920   1.00
H2       0.13278    0.85831    -0.06864   1.00
H2       0.08020    0.82533    -0.10830   1.00
H2       0.09978    0.86604    0.08091   1.00
H2       0.04452    0.89986    0.07423   1.00
C2       0.21600    0.75705    0.04782   1.00
C3       0.14512    0.73206    0.04672   1.00
O2       0.10347    0.69752    0.06292   1.00
C3       0.25855    0.80405    0.03291   1.00
H1       0.31279    0.82279    0.03301   1.00
C3a      0.11883    0.75559    0.03128   1.00
H1       0.06499    0.73896    0.03134   1.00
C3b      0.23252    0.82900    0.01796   1.00
C4       0.16219    0.80492    0.01708   1.00
O_3      0.16001    0.92824    0.02332   1.00
C5       0.06825    0.62670    0.05915   1.00
H2       0.03602    0.61398    0.04524   1.00
C5       0.02257    0.59233    0.07756   1.00
H2       0.10451    0.60734    0.05724   1.00
H2       -0.02390   0.59704    0.07617   1.00
H2       0.05045    0.62212    0.09124   1.00
C5       0.00290    0.51691    0.07990   1.00
H2       -0.01997   0.48916    0.06553   1.00
H2       -0.03478   0.49219    0.09237   1.00
H2       0.04817    0.51185    0.08388   1.00
C5       0.14138    0.94640    0.05751   1.00
H2       0.14752    0.99778    0.05492   1.00
H2       0.19354    0.95379    0.05943   1.00
C5       0.09838    0.91302    0.07662   1.00
H2       0.11904    0.94890    0.08963   1.00
C5       0.08488    0.31592    0.41633   1.00
H2       0.11802    0.29555    0.41128   1.00
H2       0.11661    0.37228    0.41517   1.00
C5       0.02219    0.28911    0.40215   1.00
H2       0.03534    0.31991    0.38799   1.00
H2       -0.02008   0.29152    0.41000   1.00
O_3      0.04901    0.34338    0.52020   1.00
C4       0.13678    0.30465    0.50186   1.00
C3c      0.13895    0.32083    0.48121   1.00
H1       0.16049    0.37348    0.47664   1.00
C3d      0.10940    0.23580    0.50746   1.00
C3       0.11270    0.26969    0.46621   1.00
O2       0.12411    0.28986    0.44622   1.00
C3       0.08204    0.18466    0.49259   1.00
H1       0.05938    0.13242    0.49768   1.00
C2       0.08315    0.20007    0.47166   1.00
C5       0.00651    0.29645    0.53506   1.00
H2       0.01087    0.32137    0.55000   1.00
H2       0.01902    0.25508    0.53730   1.00
C5       -0.06665   0.26524    0.52771   1.00
H2       -0.07058   0.24200    0.51251   1.00
H2       -0.07879   0.30690    0.52570   1.00
C5       -0.11629   0.21158    0.54271   1.00
H2       -0.11230   0.23433    0.55795   1.00
H2       -0.10572   0.16878    0.54418   1.00
H2       -0.16961   0.19043    0.53730   1.00
C5       0.16154    0.21968    0.53479   1.00
C5       0.06828    0.29460    0.43858   1.00
H2       0.20574    0.27245    0.53392   1.00
H2       0.17386    0.18513    0.52598   1.00
H2       0.06243    0.33374    0.44722   1.00
H2       0.01898    0.24534    0.43979   1.00
H2       0.00416    0.23540    0.39734   1.00
H2       0.24947    0.27206    0.56981   1.00
H2       0.24621    0.19630    0.55928   1.00
C2       0.20873    0.45709    0.54836   1.00
C3       0.25447    0.44106    0.53862   1.00
O2       0.31739    0.46072    0.54707   1.00
C3       0.14017    0.42419    0.54168   1.00
H1       0.10431    0.43662    0.54846   1.00
C3a      0.23069    0.39188    0.52299   1.00
H1       0.26541    0.37735    0.51648   1.00
C3b      0.11618    0.37373    0.52658   1.00
C4       0.16147    0.35709    0.51713   1.00
O_3      0.10137    0.21675    0.52767   1.00
C5       0.36868    0.51847    0.53689   1.00
H2       0.37057    0.50771    0.52045   1.00
C5       0.43663    0.53626    0.54688   1.00
H2       0.35997    0.56258    0.53831   1.00
H2       0.45362    0.50132    0.54078   1.00
H2       0.42670    0.52467    0.56336   1.00
C5       0.49224    0.61129    0.54364   1.00
H2       0.49765    0.62341    0.52717   1.00
H2       0.54223    0.62077    0.54961   1.00
H2       0.47981    0.64684    0.55190   1.00
C5       0.14990    0.19716    0.55688   1.00
H2       0.11394    0.14114    0.55741   1.00
H2       0.12413    0.22197    0.56457   1.00
C5       0.21706    0.21575    0.56783   1.00
H2       0.20605    0.19242    0.58318   1.00
C5       0.70996    0.72194    0.42389   1.00
H2       0.71804    0.76732    0.41517   1.00
H2       0.65446    0.68474    0.42296   1.00
C5       0.75141    0.69199    0.41409   1.00
H2       0.72377    0.65939    0.40083   1.00
H2       0.76047    0.66084    0.42539   1.00
O_3      0.68581    0.73176    0.52895   1.00
C4       0.69516    0.83203    0.50180   1.00
C3c      0.68344    0.80243    0.48243   1.00
H1       0.63427    0.75893    0.47887   1.00
C3d      0.75927    0.88929    0.50604   1.00
C3       0.73486    0.82762    0.46751   1.00
O2       0.71715    0.80144    0.44821   1.00
C3       0.81099    0.91368    0.49135   1.00
H1       0.86008    0.95619    0.49553   1.00
C2       0.80024    0.88389    0.47176   1.00
C5       0.73501    0.75908    0.54456   1.00
H2       0.71148    0.74512    0.55994   1.00
H2       0.76548    0.81583    0.54357   1.00
C5       0.78231    0.73011    0.54203   1.00
H2       0.80434    0.74240    0.52646   1.00
H2       0.75145    0.67349    0.54323   1.00
C5       0.83908    0.75919    0.55803   1.00
H2       0.81742    0.74751    0.57361   1.00
H2       0.87138    0.81546    0.55638   1.00
H2       0.87223    0.73629    0.55621   1.00
C5       0.75488    0.96651    0.52729   1.00
C5       0.72982    0.74672    0.44577   1.00
H2       0.69881    0.94339    0.52540   1.00
H2       0.78100    1.00836    0.51596   1.00
H2       0.69810    0.70489    0.45663   1.00
H2       0.78439    0.76218    0.44860   1.00
H2       0.80151    0.73325    0.40822   1.00
H2       0.68281    1.00232    0.55646   1.00
H2       0.74764    1.07574    0.54267   1.00
C2       0.54346    0.75310    0.54853   1.00
C3       0.54492    0.80069    0.53441   1.00
O2       0.50995    0.83487    0.53828   1.00
C3       0.59079    0.73009    0.54617   1.00
H1       0.58986    0.69237    0.55641   1.00
C3a      0.59409    0.82528    0.51878   1.00
H1       0.59705    0.86458    0.50880   1.00
C3b      0.64102    0.75627    0.53101   1.00
C4       0.64307    0.80436    0.51718   1.00
O_3      0.77507    0.91708    0.52532   1.00
C5       0.44879    0.80580    0.52702   1.00
H2       0.45900    0.80825    0.51038   1.00
C5       0.41378    0.84705    0.53186   1.00
H2       0.41456    0.75149    0.53138   1.00
H2       0.43860    0.89483    0.52274   1.00
H2       0.42436    0.86270    0.54808   1.00
C5       0.33633    0.80708    0.52784   1.00
H2       0.32659    0.78726    0.51205   1.00
H2       0.31371    0.84048    0.52989   1.00
H2       0.30947    0.76369    0.53870   1.00
C5       0.77437    0.99647    0.54853   1.00
H2       0.83084    1.02950    0.54923   1.00
H2       0.76023    0.95382    0.55942   1.00
C5       0.73881    1.03684    0.55441   1.00
H2       0.75953    1.06375    0.56903   1.00
C5       0.27609    0.98426    0.42337   1.00
H2       0.23015    0.94703    0.41483   1.00
H2       0.31268    0.96522    0.42239   1.00
C5       0.30652    1.05536    0.41333   1.00
H2       0.33842    1.05933    0.39998   1.00
H2       0.33847    1.09583    0.42447   1.00
O_3      0.26988    0.95425    0.52852   1.00
C4       0.16796    0.86313    0.50180   1.00
C3c      0.19685    0.87994    0.48233   1.00
H1       0.23980    0.87343    0.47869   1.00
C3d      0.11141    0.87107    0.50615   1.00
C3       0.17169    0.90618    0.46741   1.00
O2       0.19705    0.91356    0.44803   1.00
C3       0.08706    0.89841    0.49145   1.00
H1       0.04514    0.90585    0.49572   1.00
C2       0.11615    0.91638    0.47175   1.00
C5       0.24372    0.97732    0.54413   1.00
H2       0.25802    0.96806    0.55950   1.00
H2       0.18697    0.95167    0.54333   1.00
C5       0.27353    1.05362    0.54136   1.00
H2       0.26088    1.06302    0.52579   1.00
H2       0.33014    1.07875    0.54238   1.00
C5       0.24571    1.08258    0.55735   1.00
H2       0.25775    1.07295    0.57294   1.00
H2       0.18945    1.05923    0.55589   1.00
H2       0.26921    1.13863    0.55536   1.00
C5       0.03437    0.79086    0.52776   1.00
C5       0.25227    0.98053    0.44530   1.00
H2       0.05674    0.75724    0.52590   1.00
H2       -0.00783   0.77521    0.51656   1.00
H2       0.29435    0.99049    0.45605   1.00
H2       0.23764    1.02028    0.44808   1.00
H2       0.26548    1.06466    0.40753   1.00
H2       -0.00168   0.68385    0.55726   1.00
H2       -0.07519   0.67578    0.54366   1.00
C2       0.24698    0.79042    0.54852   1.00
C3       0.19851    0.74412    0.53462   1.00
O2       0.16370    0.67514    0.53872   1.00
C3       0.27079    0.86084    0.54595   1.00
H1       0.30917    0.89773    0.55602   1.00
C3a      0.17388    0.76865    0.51898   1.00
H1       0.13395    0.73227    0.50918   1.00
C3b      0.24459    0.88488    0.53079   1.00
C4       0.19564    0.83871    0.51718   1.00
O_3      0.08441    0.86017    0.52553   1.00
C5       0.19161    0.64191    0.52748   1.00
H2       0.18866    0.64912    0.51083   1.00
C5       0.14971    0.56590    0.53259   1.00
H2       0.24598    0.66149    0.53167   1.00
H2       0.10159    0.54315    0.52363   1.00
H2       0.13473    0.56166    0.54885   1.00
C5       0.18865    0.52738    0.52857   1.00
H2       0.20785    0.53661    0.51271   1.00
H2       0.15473    0.47153    0.53082   1.00
H2       0.23237    0.54379    0.53929   1.00
C5       0.00531    0.78159    0.54909   1.00
H2       -0.02708   0.80574    0.54981   1.00
H2       0.04848    0.81008    0.55982   1.00
C5       -0.03568   0.70593    0.55524   1.00
H2       -0.06190   0.70069    0.56993   1.00
C5       0.05286    0.14204    1.00450   1.00
H2       0.02014    0.08594    1.00609   1.00
H2       0.05088    0.15328    0.98819   1.00
C5       0.02386    0.17808    1.01773   1.00
H2       -0.01890   0.17946    1.00984   1.00
H2       0.06460    0.23122    1.02113   1.00
O_3      0.40353    0.27492    0.99724   1.00
C4       0.30458    0.13543    0.99812   1.00
C3c      0.24167    0.13218    0.99503   1.00
H1       0.23161    0.14907    0.98077   1.00
C3d      0.31628    0.11226    1.01670   1.00
C3       0.19132    0.10819    1.01027   1.00
O2       0.12813    0.09869    1.00527   1.00
C3       0.26677    0.08957    1.03205   1.00
H1       0.27898    0.07459    1.04630   1.00
C2       0.20316    0.08665    1.02925   1.00
C5       0.45530    0.29254    1.01185   1.00
H2       0.50720    0.31860    1.00495   1.00
H2       0.44835    0.24648    1.02011   1.00
C5       0.45078    0.34097    1.02688   1.00
H2       0.39831    0.31565    1.03335   1.00
H2       0.45842    0.38702    1.01850   1.00
C5       0.50397    0.36087    1.04378   1.00
H2       0.55647    0.38576    1.03741   1.00
H2       0.49494    0.31521    1.05261   1.00
H2       0.50089    0.39746    1.05437   1.00
C5       0.38105    0.06136    1.01397   1.00
C5       0.12485    0.15777    1.01018   1.00
H2       0.37472    0.05634    0.99721   1.00
H2       0.34052    0.01353    1.02114   1.00
H2       0.16361    0.20226    1.00129   1.00
H2       0.13494    0.17142    1.02662   1.00
H2       0.00248    0.15009    1.03229   1.00
H2       0.47349    0.03338    0.99130   1.00
H2       0.42345    -0.03269   1.00973   1.00
C2       0.46258    0.21499    0.95327   1.00
C3       0.41139    0.14558    0.95278   1.00
O2       0.42038    0.09948    0.94143   1.00
C3       0.45819    0.25753    0.96821   1.00
H1       0.49557    0.31125    0.96866   1.00
C3a      0.35863    0.12010    0.96733   1.00
H1       0.32205    0.06609    0.96747   1.00
C3b      0.40690    0.23158    0.98306   1.00
C4       0.35664    0.16236    0.98273   1.00
O_3      0.37921    0.11918    1.02108   1.00
C5       0.38294    0.08448    0.92320   1.00
H2       0.32729    0.06226    0.92623   1.00
C5       0.39460    0.03244    0.91171   1.00
H2       0.40084    0.13119    0.91375   1.00
H2       0.36096    -0.01889   0.91838   1.00
H2       0.44805    0.04498    0.91470   1.00
C5       0.38176    0.03176    0.88871   1.00
H2       0.33010    0.02455    0.88605   1.00
H2       0.38512    -0.01044   0.88116   1.00
H2       0.42083    0.08016    0.88134   1.00
C5       0.45050    0.07062    1.01944   1.00
H2       0.45206    0.06380    1.03612   1.00
H2       0.49003    0.12423    1.01595   1.00
C5       0.46568    0.02076    1.00780   1.00
H2       0.51321    0.02404    1.01368   1.00
C5       0.70517    0.73120    1.06983   1.00
H2       0.74404    0.73295    1.08046   1.00
H2       0.66219    0.67777    1.07017   1.00
C5       0.68120    0.78066    1.07723   1.00
H2       0.64219    0.75675    1.08941   1.00
H2       0.65896    0.79489    1.06437   1.00
O_3      0.75048    0.70001    0.96677   1.00
C4       0.83194    0.69505    0.99823   1.00
C3c      0.79589    0.68792    1.01625   1.00
H1       0.74725    0.64235    1.01875   1.00
C3d      0.89569    0.75439    0.99539   1.00
C3       0.82128    0.73947    1.03113   1.00
O2       0.78736    0.72538    1.04938   1.00
C3       0.92050    0.80638    1.01000   1.00
H1       0.96847    0.85200    1.00684   1.00
C2       0.88435    0.80032    1.02822   1.00
C5       0.78917    0.74774    0.95157   1.00
H2       0.77865    0.72423    0.93618   1.00
H2       0.84493    0.77136    0.95460   1.00
C5       0.76984    0.80304    0.95169   1.00
H2       0.77854    0.82522    0.96723   1.00
H2       0.71421    0.77898    0.94846   1.00
C5       0.81150    0.85858    0.93602   1.00
H2       0.80343    0.83670    0.92049   1.00
H2       0.86688    0.88425    0.93964   1.00
H2       0.79561    0.89776    0.93603   1.00
C5       0.97274    0.73666    0.97812   1.00
C5       0.73918    0.74772    1.04893   1.00
H2       0.94199    0.68042    0.98008   1.00
H2       1.01038    0.75836    0.99077   1.00
H2       0.70046    0.72004    1.03686   1.00
H2       0.76314    0.80354    1.04569   1.00
H2       0.72435    0.82792    1.08395   1.00
H2       1.00443    0.65281    0.95246   1.00
H2       1.07592    0.71100    0.96823   1.00
C2       0.75392    0.54361    0.95143   1.00
C3       0.79161    0.53812    0.96764   1.00
O2       0.81817    0.49514    0.96618   1.00
C3       0.74003    0.59799    0.95165   1.00
H1       0.70981    0.60262    0.93974   1.00
C3a      0.81583    0.58738    0.98325   1.00
H1       0.84789    0.58467    0.99493   1.00
C3b      0.76603    0.64811    0.96685   1.00
C4       0.80438    0.64317    0.98279   1.00
O_3      0.93074    0.76619    0.97728   1.00
C5       0.77762    0.43472    0.97724   1.00
H2       0.77510    0.44586    0.99362   1.00
C5       0.81093    0.39054    0.97516   1.00
H2       0.72474    0.40658    0.97107   1.00
H2       0.85455    0.40983    0.98593   1.00
H2       0.83300    0.39878    0.95962   1.00
C5       0.76066    0.31417    0.97888   1.00
H2       0.73513    0.30747    0.99379   1.00
H2       0.78784    0.28459    0.97893   1.00
H2       0.72133    0.29194    0.96663   1.00
C5       1.01110    0.75198    0.95809   1.00
H2       1.05040    0.80712    0.95777   1.00
H2       0.97454    0.74324    0.94558   1.00
C5       1.04393    0.70731    0.95495   1.00
H2       1.07720    0.72468    0.94131   1.00
C5       0.98332    0.27559    1.07676   1.00
H2       0.94611    0.22952    1.08526   1.00
H2       0.96409    0.31203    1.07775   1.00
C5       1.05434    0.30613    1.08685   1.00
H2       1.05807    0.33786    1.10022   1.00
H2       1.09487    0.33829    1.07576   1.00
O_3      0.95429    0.27029    0.97159   1.00
C4       0.86313    0.16796    0.99819   1.00
C3c      0.87967    0.19667    1.01769   1.00
H1       0.87295    0.23948    1.02136   1.00
C3d      0.87135    0.11159    0.99382   1.00
C3       0.90591    0.17151    1.03262   1.00
O2       0.91303    0.19666    1.05202   1.00
C3       0.89869    0.08725    1.00852   1.00
H1       0.90634    0.04548    1.00424   1.00
C2       0.91638    0.11616    1.02825   1.00
C5       0.97765    0.24441    0.95597   1.00
H2       0.96847    0.25880    0.94061   1.00
H2       0.95217    0.18767    0.95673   1.00
C5       1.05396    0.27443    0.95881   1.00
H2       1.06328    0.26169    0.97437   1.00
H2       1.07894    0.33104    0.95784   1.00
C5       1.08324    0.24693    0.94282   1.00
H2       1.07370    0.25906    0.92723   1.00
H2       1.06004    0.19067    0.94423   1.00
H2       1.13929    0.27058    0.94486   1.00
C5       0.79148    0.03460    0.97212   1.00
C5       0.97988    0.25201    1.05481   1.00
H2       0.75770    0.05678    0.97397   1.00
H2       0.77585    -0.00769   0.98329   1.00
H2       0.98980    0.29415    1.04410   1.00
H2       1.01979    0.23759    1.05205   1.00
H2       1.06376    0.26515    1.09264   1.00
H2       0.68469    -0.00150   0.94254   1.00
H2       0.67676    -0.07504   0.95609   1.00
C2       0.79043    0.24700    0.95148   1.00
C3       0.74410    0.19831    0.96533   1.00
O2       0.67515    0.16334    0.96116   1.00
C3       0.86088    0.27101    0.95410   1.00
H1       0.89778    0.30956    0.94408   1.00
C3a      0.76862    0.17367    0.98096   1.00
H1       0.73222    0.13359    0.99072   1.00
C3b      0.88491    0.24480    0.96926   1.00
C4       0.83871    0.19564    0.98283   1.00
O_3      0.86072    0.08478    0.97442   1.00
C5       0.64165    0.19097    0.97240   1.00
H2       0.64873    0.18789    0.98906   1.00
C5       0.56571    0.14890    0.96723   1.00
H2       0.66110    0.24534    0.96826   1.00
H2       0.54301    0.10071    0.97614   1.00
H2       0.56167    0.13410    0.95096   1.00
C5       0.52692    0.18758    0.97125   1.00
H2       0.53595    0.20663    0.98712   1.00
H2       0.47112    0.15355    0.96895   1.00
H2       0.54330    0.23139    0.96056   1.00
C5       0.78252    0.00577    0.95077   1.00
H2       0.80684    -0.02647   0.95004   1.00
H2       0.81100    0.04906    0.94008   1.00
C5       0.70693    -0.03538   0.94456   1.00
H2       0.70192    -0.06143   0.92985   1.00
C5       0.63944    1.03635    0.91148   1.00
H2       0.68864    1.08377    0.90863   1.00
H2       0.64923    0.99363    0.90866   1.00
C5       0.61751    1.03536    0.93376   1.00
H2       0.64452    1.01775    0.94408   1.00
H2       0.56153    1.00067    0.93534   1.00
O_3      0.39748    0.91762    0.83424   1.00
C4       0.53109    1.02907    0.83136   1.00
C3c      0.56583    1.02502    0.84847   1.00
H1       0.57387    0.98208    0.85020   1.00
C3d      0.52200    1.08594    0.82925   1.00
C3       0.58980    1.07541    0.86369   1.00
O2       0.63046    1.07234    0.87869   1.00
C3       0.54466    1.13553    0.84457   1.00
H1       0.53440    1.17697    0.84264   1.00
C2       0.57923    1.13185    0.86208   1.00
C5       0.34770    0.93423    0.82822   1.00
H2       0.31355    0.89953    0.81614   1.00
H2       0.37189    0.98766    0.82246   1.00
C5       0.30466    0.92727    0.84672   1.00
H2       0.33903    0.96051    0.85900   1.00
H2       0.28026    0.87360    0.85222   1.00
C5       0.25054    0.94684    0.84167   1.00
H2       0.21634    0.91416    0.82932   1.00
H2       0.27492    1.00113    0.83684   1.00
H2       0.21863    0.93999    0.85525   1.00
C5       0.52617    1.12056    0.79653   1.00
C5       0.59003    1.03598    0.89556   1.00
H2       0.54867    1.08971    0.79099   1.00
H2       0.56838    1.17303    0.80010   1.00
H2       0.55243    0.98257    0.89108   1.00
H2       0.56062    1.05939    0.90189   1.00
H2       0.63100    1.08758    0.93901   1.00
H2       0.52231    1.09580    0.75344   1.00
H2       0.56950    1.18599    0.75976   1.00
C2       0.45028    0.87372    0.78571   1.00
C3       0.51860    0.92723    0.78451   1.00
O2       0.55447    0.94001    0.76659   1.00
C3       0.41100    0.87120    0.80272   1.00
H1       0.35910    0.82994    0.80435   1.00
C3a      0.54531    0.97737    0.79986   1.00
H1       0.59643    1.02010    0.79814   1.00
C3b      0.43702    0.92233    0.81762   1.00
C4       0.50461    0.97605    0.81626   1.00
O_3      0.48369    1.08977    0.81349   1.00
C5       0.59937    0.91387    0.76755   1.00
H2       0.63664    0.93750    0.78024   1.00
C5       0.63785    0.93104    0.74736   1.00
H2       0.57076    0.85750    0.76971   1.00
H2       0.67951    0.98525    0.74783   1.00
H2       0.60181    0.92753    0.73528   1.00
C5       0.66678    0.88379    0.74249   1.00
H2       0.69829    0.88379    0.75542   1.00
H2       0.69914    0.90136    0.72862   1.00
H2       0.62510    0.83046    0.73942   1.00
C5       0.48223    1.12482    0.77976   1.00
H2       0.46950    1.16484    0.78390   1.00
H2       0.43325    1.07545    0.77924   1.00
C5       0.51783    1.13998    0.75896   1.00
H2       0.48759    1.14977    0.74756   1.00
C5       -0.02117   0.57529    0.91592   1.00
H2       -0.06370   0.58615    0.91455   1.00
H2       0.02642    0.62538    0.91454   1.00
C5       -0.02451   0.54302    0.93688   1.00
H2       -0.00140   0.58300    0.94882   1.00
H2       0.00325    0.51405    0.93637   1.00
O_3      0.06806    0.45920    0.82992   1.00
C4       -0.02901   0.50215    0.83138   1.00
C3c      -0.01937   0.53514    0.85013   1.00
H1       0.02802    0.58156    0.85317   1.00
C3d      -0.09151   0.44226    0.82761   1.00
C3       -0.06991   0.50853    0.86531   1.00
O2       -0.06026   0.54786    0.88225   1.00
C3       -0.14142   0.41492    0.84283   1.00
H1       -0.18756   0.36759    0.83951   1.00
C2       -0.13221   0.44723    0.86197   1.00
C5       0.04205    0.39403    0.82111   1.00
H2       0.07394    0.39432    0.80819   1.00
H2       -0.01105   0.37420    0.81548   1.00
C5       0.04168    0.34637    0.83739   1.00
H2       0.01139    0.34755    0.85055   1.00
H2       0.09500    0.36631    0.84277   1.00
C5       0.01173    0.27349    0.82925   1.00
H2       0.04145    0.27201    0.81603   1.00
H2       -0.04228   0.25268    0.82454   1.00
H2       0.01328    0.23973    0.84123   1.00
C5       -0.12691   0.43001    0.79471   1.00
C5       -0.02858   0.53016    0.89769   1.00
H2       -0.08983   0.48413    0.79103   1.00
H2       -0.17625   0.42606    0.79923   1.00
H2       0.02258    0.54026    0.89253   1.00
H2       -0.05885   0.47504    0.90197   1.00
H2       -0.07847   0.50803    0.94163   1.00
H2       -0.09959   0.46725    0.75242   1.00
H2       -0.18867   0.43343    0.75910   1.00
C2       0.12562    0.57629    0.78551   1.00
C3       0.07972    0.60126    0.78661   1.00
O2       0.07261    0.63579    0.77041   1.00
C3       0.12117    0.52929    0.80043   1.00
H1       0.15668    0.51055    0.80032   1.00
C3a      0.02990    0.57773    0.80205   1.00
H1       -0.00731   0.59436    0.80199   1.00
C3b      0.07019    0.50434    0.81537   1.00
C4       0.02394    0.52841    0.81625   1.00
O_3      -0.10156   0.40508    0.81001   1.00
C5       0.10820    0.70661    0.77417   1.00
H2       0.08869    0.71934    0.78809   1.00
C5       0.09689    0.74098    0.75576   1.00
H2       0.16382    0.72598    0.77609   1.00
H2       0.04570    0.73626    0.75715   1.00
H2       0.09498    0.71118    0.74209   1.00
C5       0.15263    0.81640    0.75342   1.00
H2       0.15751    0.84415    0.76779   1.00
H2       0.13966    0.84111    0.74095   1.00
H2       0.20296    0.82146    0.74944   1.00
C5       -0.13834   0.38690    0.77582   1.00
H2       -0.18358   0.33552    0.77841   1.00
H2       -0.09357   0.37952    0.77391   1.00
C5       -0.14796   0.42028    0.75671   1.00
H2       -0.16318   0.38439    0.74370   1.00
C5       0.42391    0.40242    0.91582   1.00
H2       0.41328    0.34911    0.91442   1.00
H2       0.37374    0.39973    0.91441   1.00
C5       0.45590    0.43119    0.93683   1.00
H2       0.41577    0.41405    0.94873   1.00
H2       0.48469    0.48793    0.93638   1.00
O_3      0.54030    0.60874    0.83004   1.00
C4       0.49785    0.46884    0.83138   1.00
C3c      0.46469    0.44518    0.85010   1.00
H1       0.41813    0.44592    0.85311   1.00
C3d      0.55793    0.46653    0.82765   1.00
C3       0.49129    0.42125    0.86527   1.00
O2       0.45182    0.39127    0.88217   1.00
C3       0.58525    0.44395    0.84287   1.00
H1       0.63272    0.44538    0.83958   1.00
C2       0.55277    0.42055    0.86197   1.00
C5       0.60554    0.64820    0.82130   1.00
H2       0.60525    0.67988    0.80840   1.00
H2       0.62562    0.61516    0.81565   1.00
C5       0.65292    0.69542    0.83764   1.00
H2       0.65173    0.66387    0.85077   1.00
H2       0.63273    0.72859    0.84303   1.00
C5       0.72586    0.73866    0.82958   1.00
H2       0.72735    0.76994    0.81637   1.00
H2       0.74691    0.70568    0.82485   1.00
H2       0.75940    0.77390    0.84160   1.00
C5       0.57067    0.44385    0.79473   1.00
C5       0.46918    0.44046    0.89766   1.00
H2       0.51654    0.42665    0.79101   1.00
H2       0.57477    0.39852    0.79923   1.00
H2       0.45893    0.48144    0.89251   1.00
H2       0.52425    0.46544    0.90199   1.00
H2       0.49099    0.41236    0.94159   1.00
H2       0.53385    0.43425    0.75242   1.00
H2       0.56791    0.37919    0.75909   1.00
C2       0.42371    0.54934    0.78552   1.00
C3       0.39898    0.47850    0.78655   1.00
O2       0.36473    0.43697    0.77030   1.00
C3       0.47046    0.59183    0.80049   1.00
H1       0.48900    0.64604    0.80043   1.00
C3a      0.42250    0.45219    0.80199   1.00
H1       0.40607    0.39840    0.80189   1.00
C3b      0.49541    0.56580    0.81543   1.00
C4       0.47159    0.49552    0.81625   1.00
O_3      0.59526    0.49396    0.81009   1.00
C5       0.29387    0.40147    0.77400   1.00
H2       0.28110    0.36910    0.78788   1.00
C5       0.25983    0.35595    0.75554   1.00
H2       0.27428    0.43754    0.77592   1.00
H2       0.26475    0.30959    0.75690   1.00
H2       0.28972    0.38405    0.74190   1.00
C5       0.18436    0.33601    0.75313   1.00
H2       0.15649    0.31291    0.76747   1.00
H2       0.15990    0.29845    0.74062   1.00
H2       0.17913    0.38121    0.74918   1.00
C5       0.61394    0.47585    0.77590   1.00
H2       0.66537    0.48218    0.77853   1.00
H2       0.62113    0.52795    0.77402   1.00
C5       0.58088    0.43302    0.75674   1.00
H2       0.61690    0.45394    0.74377   1.00
C5       0.64763    0.40323    0.33840   1.00
H2       0.66593    0.36901    0.33273   1.00
H2       0.65133    0.40282    0.35519   1.00
C5       0.69401    0.47612    0.33007   1.00
H2       0.74139    0.50374    0.33928   1.00
H2       0.66639    0.50525    0.33038   1.00
O_3      0.29700    0.27061    0.34567   1.00
C4       0.36186    0.19647    0.33514   1.00
C3c      0.43101    0.23878    0.34000   1.00
H1       0.44594    0.25248    0.35563   1.00
C3d      0.34358    0.17842    0.31470   1.00
C3       0.48168    0.26479    0.32485   1.00
O2       0.54879    0.29888    0.33095   1.00
C3       0.39376    0.20529    0.29955   1.00
H1       0.37704    0.19198    0.28402   1.00
C2       0.46384    0.24875    0.30417   1.00
C5       0.24674    0.26245    0.33148   1.00
H2       0.19616    0.24471    0.33876   1.00
H2       0.24036    0.22504    0.31945   1.00
C5       0.26999    0.33145    0.32175   1.00
H2       0.32139    0.35007    0.31497   1.00
H2       0.27557    0.36822    0.33387   1.00
C5       0.21921    0.32665    0.30553   1.00
H2       0.16765    0.30764    0.31216   1.00
H2       0.21539    0.29176    0.29307   1.00
H2       0.23629    0.37784    0.29890   1.00
C5       0.25355    0.07094    0.31029   1.00
C5       0.57280    0.36970    0.33190   1.00
H2       0.25667    0.05588    0.32614   1.00
H2       0.28415    0.05656    0.30031   1.00
H2       0.54283    0.38033    0.34329   1.00
H2       0.56827    0.39095    0.31704   1.00
H2       0.71072    0.47487    0.31420   1.00
H2       0.13730    -0.05029   0.32623   1.00
H2       0.17408    -0.06735   0.30405   1.00
C2       0.20468    0.12204    0.38022   1.00
C3       0.23902    0.08585    0.37596   1.00
O2       0.21203    0.01911    0.38221   1.00
C3       0.22582    0.18447    0.37003   1.00
H1       0.20176    0.21427    0.37334   1.00
C3a      0.29182    0.11152    0.36141   1.00
H1       0.31495    0.08128    0.35747   1.00
C3b      0.27685    0.20876    0.35510   1.00
C4       0.31022    0.17219    0.35065   1.00
O_3      0.27582    0.14120    0.30896   1.00
C5       0.24656    0.01593    0.39962   1.00
H2       0.30209    0.03738    0.39656   1.00
C5       0.21458    -0.05942   0.40537   1.00
H2       0.24069    0.04458    0.41247   1.00
H2       0.23622    -0.08334   0.39530   1.00
H2       0.15914    -0.08443   0.40181   1.00
C5       0.22560    -0.07016   0.42784   1.00
H2       0.28085    -0.04046   0.43152   1.00
H2       0.20675    -0.12504   0.43102   1.00
H2       0.19679    -0.05422   0.43812   1.00
C5       0.17939    0.03218    0.30349   1.00
H2       0.17768    0.03804    0.28676   1.00
H2       0.15234    0.05678    0.31051   1.00
C5       0.14415    -0.04366   0.30946   1.00
H2       0.09268    -0.07165   0.30246   1.00
C5       0.59644    0.36861    0.33401   1.00
H2       0.57466    0.37779    0.32008   1.00
H2       0.57081    0.37815    0.34692   1.00
C5       0.58079    0.29380    0.33426   1.00
H2       0.52805    0.25903    0.33981   1.00
H2       0.61761    0.28890    0.34431   1.00
O_3      0.91070    0.62981    0.36762   1.00
C4       0.83515    0.63854    0.33502   1.00
C3c      0.76984    0.58085    0.33657   1.00
H1       0.73827    0.57510    0.34957   1.00
C3d      0.87509    0.64553    0.31783   1.00
C3       0.74465    0.52942    0.32166   1.00
O2       0.67741    0.47880    0.32295   1.00
C3       0.85067    0.59379    0.30314   1.00
H1       0.88408    0.60024    0.29059   1.00
C2       0.78505    0.53475    0.30459   1.00
C5       0.97861    0.65027    0.36223   1.00
H2       1.01632    0.69117    0.37237   1.00
H2       0.98964    0.66937    0.34630   1.00
C5       0.98757    0.58833    0.36411   1.00
H2       0.94863    0.54680    0.35442   1.00
H2       0.97707    0.57009    0.38012   1.00
C5       1.05965    0.60556    0.35781   1.00
H2       1.09883    0.64733    0.36733   1.00
H2       1.06935    0.62151    0.34162   1.00
H2       1.06571    0.56008    0.35971   1.00
C5       0.94211    0.75542    0.30727   1.00
C5       0.67234    0.42239    0.33369   1.00
H2       0.91395    0.77398    0.31669   1.00
H2       0.91904    0.74305    0.29180   1.00
H2       0.69182    0.43777    0.34947   1.00
H2       0.70251    0.40120    0.32646   1.00
H2       0.58360    0.27595    0.31867   1.00
H2       1.00592    0.90036    0.31448   1.00
H2       0.99142    0.87863    0.28771   1.00
C2       0.91760    0.79282    0.38097   1.00
C3       0.87682    0.79634    0.36535   1.00
O2       0.87689    0.85636    0.36167   1.00
C3       0.92739    0.73582    0.38153   1.00
H1       0.95687    0.73072    0.39359   1.00
C3a      0.84855    0.74449    0.35053   1.00
H1       0.82072    0.74990    0.33802   1.00
C3b      0.90103    0.68546    0.36640   1.00
C4       0.86138    0.68958    0.35071   1.00
O_3      0.94161    0.69871    0.31632   1.00
C5       0.81773    0.85298    0.36986   1.00
H2       0.77056    0.81007    0.36308   1.00
C5       0.82107    0.92061    0.36487   1.00
H2       0.81572    0.84602    0.38664   1.00
H2       0.80457    0.91867    0.34886   1.00
H2       0.87564    0.96140    0.36561   1.00
C5       0.77747    0.93693    0.37928   1.00
H2       0.72434    0.89332    0.37957   1.00
H2       0.77660    0.98334    0.37415   1.00
H2       0.79875    0.94762    0.39501   1.00
C5       1.01615    0.81201    0.30559   1.00
H2       1.04125    0.79806    0.29348   1.00
H2       1.04240    0.81415    0.32010   1.00
C5       1.02243    0.88170    0.30118   1.00
H2       1.07646    0.92016    0.29796   1.00
C5       0.76008    0.39621    0.33541   1.00
H2       0.79237    0.42062    0.32187   1.00
H2       0.79325    0.42129    0.34875   1.00
C5       0.69879    0.40863    0.33532   1.00
H2       0.71395    0.46021    0.34136   1.00
H2       0.65669    0.36952    0.34479   1.00
O_3      0.71696    0.08326    0.36645   1.00
C4       0.80343    0.16490    0.33503   1.00
C3c      0.80786    0.22872    0.33708   1.00
H1       0.83118    0.25914    0.35047   1.00
C3d      0.77374    0.12650    0.31733   1.00
C3       0.78162    0.25386    0.32215   1.00
O2       0.79521    0.32003    0.32402   1.00
C3       0.74639    0.15080    0.30262   1.00
H1       0.72194    0.11849    0.28964   1.00
C2       0.74977    0.21490    0.30456   1.00
C5       0.67237    0.01547    0.36025   1.00
H2       0.67623    -0.02238   0.37015   1.00
H2       0.68308    0.00705    0.34431   1.00
C5       0.60007    0.00313    0.36153   1.00
H2       0.59671    0.04216    0.35209   1.00
H2       0.58972    0.01105    0.37753   1.00
C5       0.54822    -0.06896   0.35433   1.00
H2       0.55162    -0.10818   0.36360   1.00
H2       0.55704    -0.07613   0.33814   1.00
H2       0.49558    -0.07754   0.35580   1.00
C5       0.82210    0.06450    0.30665   1.00
C5       0.74117    0.32122    0.33440   1.00
H2       0.86737    0.09301    0.31661   1.00
H2       0.83378    0.08938    0.29143   1.00
H2       0.73601    0.30010    0.35001   1.00
H2       0.69097    0.29026    0.32659   1.00
H2       0.67967    0.40681    0.31957   1.00
H2       0.90728    0.00527    0.31403   1.00
H2       0.90241    0.02234    0.28732   1.00
C2       0.87532    0.08231    0.38091   1.00
C3       0.92055    0.12607    0.36592   1.00
O2       0.98229    0.12930    0.36269   1.00
C3       0.80743    0.06953    0.38091   1.00
H1       0.77204    0.03768    0.39249   1.00
C3a      0.89684    0.15432    0.35112   1.00
H1       0.93101    0.18457    0.33907   1.00
C3b      0.78344    0.09593    0.36579   1.00
C4       0.82817    0.13858    0.35071   1.00
O_3      0.76349    0.06121    0.31527   1.00
C5       1.03550    0.18862    0.37170   1.00
H2       1.03839    0.23563    0.36528   1.00
C5       1.10200    0.18903    0.36717   1.00
H2       1.02831    0.18829    0.38844   1.00
H2       1.11803    0.20776    0.35140   1.00
H2       1.09046    0.13509    0.36743   1.00
C5       1.15944    0.23261    0.38231   1.00
H2       1.16656    0.28481    0.38304   1.00
H2       1.20836    0.23633    0.37755   1.00
H2       1.14773    0.20944    0.39781   1.00
C5       0.80802    -0.00830   0.30433   1.00
H2       0.77077    -0.03314   0.29176   1.00
H2       0.78290    -0.03680   0.31847   1.00
C5       0.87370    -0.01087   0.30036   1.00
H2       0.86080    -0.06387   0.29666   1.00
C5       0.84807    0.65414    0.74846   1.00
H2       0.86679    0.61722    0.74834   1.00
H2       0.89437    0.70553    0.74883   1.00
C5       0.80646    0.64531    0.72894   1.00
H2       0.84087    0.67241    0.71595   1.00
H2       0.77151    0.66594    0.73134   1.00
O_3      0.74289    0.71921    0.84083   1.00
C4       0.80319    0.63773    0.83526   1.00
C3c      0.82973    0.65125    0.81548   1.00
H1       0.87050    0.70174    0.81162   1.00
C3d      0.75073    0.57135    0.84006   1.00
C3       0.80369    0.60054    0.80035   1.00
O2       0.83764    0.61515    0.78210   1.00
C3       0.72381    0.52110    0.82492   1.00
H1       0.68198    0.47161    0.82913   1.00
C2       0.74954    0.53411    0.80478   1.00
C5       0.68099    0.68534    0.85173   1.00
H2       0.68114    0.71479    0.86529   1.00
H2       0.67034    0.63401    0.85689   1.00
C5       0.62431    0.67689    0.83758   1.00
H2       0.62539    0.64913    0.82376   1.00
H2       0.63513    0.72846    0.83267   1.00
C5       0.55459    0.63818    0.84803   1.00
H2       0.55331    0.66537    0.86193   1.00
H2       0.54269    0.58582    0.85231   1.00
H2       0.51398    0.63382    0.83762   1.00
C5       0.75557    0.53813    0.87238   1.00
C5       0.80809    0.64069    0.76828   1.00
H2       0.80866    0.58066    0.87462   1.00
H2       0.75741    0.49247    0.86689   1.00
H2       0.81274    0.68901    0.77419   1.00
H2       0.75265    0.60417    0.76565   1.00
H2       0.77595    0.59046    0.72443   1.00
H2       0.80669    0.57019    0.91341   1.00
H2       0.78220    0.48351    0.90610   1.00
C2       0.87492    0.79168    0.88131   1.00
C3       0.90825    0.75389    0.87807   1.00
O2       0.95211    0.75342    0.89251   1.00
C3       0.82009    0.77965    0.86840   1.00
H1       0.79466    0.80897    0.87014   1.00
C3a      0.88527    0.70432    0.86256   1.00
H1       0.90879    0.67313    0.86103   1.00
C3b      0.79597    0.72882    0.85341   1.00
C4       0.82847    0.69057    0.85042   1.00
O_3      0.71938    0.55676    0.85886   1.00
C5       1.02040    0.79707    0.88662   1.00
H2       1.03178    0.78095    0.87181   1.00
C5       1.06558    0.79282    0.90316   1.00
H2       1.03156    0.85074    0.88522   1.00
H2       1.06806    0.74544    0.90076   1.00
H2       1.03933    0.78670    0.91795   1.00
C5       1.13789    0.85572    0.90361   1.00
H2       1.16124    0.86420    0.88829   1.00
H2       1.17084    0.84825    0.91463   1.00
H2       1.13687    0.90245    0.90854   1.00
C5       0.71861    0.52136    0.89268   1.00
H2       0.67012    0.47187    0.89121   1.00
H2       0.70447    0.56097    0.89596   1.00
C5       0.76274    0.51852    0.91000   1.00
H2       0.73185    0.49929    0.92407   1.00
C5       0.59477    0.43423    0.82320   1.00
H2       0.63259    0.41665    0.82314   1.00
H2       0.59469    0.45194    0.83891   1.00
C5       0.61720    0.49374    0.80799   1.00
H2       0.65644    0.54274    0.81486   1.00
H2       0.57246    0.49848    0.80338   1.00
O_3      0.25190    0.18836    0.83270   1.00
C4       0.36217    0.16426    0.83523   1.00
C3c      0.42084    0.22874    0.83707   1.00
H1       0.42754    0.25952    0.85035   1.00
C3d      0.35488    0.12456    0.81795   1.00
C3       0.47109    0.25493    0.82181   1.00
O2       0.53079    0.31457    0.82578   1.00
C3       0.40419    0.15102    0.80255   1.00
H1       0.39522    0.11972    0.78925   1.00
C2       0.46346    0.21645    0.80406   1.00
C5       0.20195    0.14514    0.81861   1.00
H2       0.15020    0.11652    0.82554   1.00
H2       0.21472    0.10742    0.81208   1.00
C5       0.20009    0.18961    0.80165   1.00
H2       0.25225    0.21965    0.79509   1.00
H2       0.18667    0.22663    0.80831   1.00
C5       0.14857    0.14624    0.78522   1.00
H2       0.09645    0.11574    0.79169   1.00
H2       0.16324    0.11091    0.77807   1.00
H2       0.14684    0.17973    0.77319   1.00
C5       0.30155    0.01018    0.82410   1.00
C5       0.52610    0.37080    0.81848   1.00
H2       0.30765    0.01768    0.84080   1.00
H2       0.34566    0.00667    0.81799   1.00
H2       0.48403    0.37366    0.82639   1.00
H2       0.51535    0.36737    0.80183   1.00
H2       0.64111    0.48585    0.79418   1.00
H2       0.21900    -0.10588   0.84972   1.00
H2       0.27464    -0.11977   0.83296   1.00
C2       0.20400    0.08506    0.88003   1.00
C3       0.26066    0.07544    0.88218   1.00
O2       0.25816    0.02720    0.89548   1.00
C3       0.20280    0.12401    0.86341   1.00
H1       0.16102    0.13379    0.86163   1.00
C3a      0.31333    0.10303    0.86759   1.00
H1       0.35441    0.09193    0.86882   1.00
C3b      0.25417    0.14952    0.84858   1.00
C4       0.30994    0.13902    0.85057   1.00
O_3      0.29575    0.06302    0.81469   1.00
C5       0.29439    0.05886    0.91337   1.00
H2       0.34900    0.09623    0.91004   1.00
C5       0.29020    0.00239    0.92711   1.00
H2       0.27135    0.08600    0.92128   1.00
H2       0.32838    -0.01146   0.92179   1.00
H2       0.23907    -0.04351   0.92479   1.00
C5       0.30160    0.02278    0.94969   1.00
H2       0.35037    0.07159    0.95151   1.00
H2       0.30391    -0.01715   0.95895   1.00
H2       0.25877    0.02842    0.95594   1.00
C5       0.23609    -0.05644   0.81979   1.00
H2       0.23598    -0.06977   0.80353   1.00
H2       0.19224    -0.04775   0.82198   1.00
C5       0.22835    -0.11459   0.83367   1.00
H2       0.18401    -0.16370   0.82871   1.00
C5       0.57601    0.18794    0.82828   1.00
H2       0.59882    0.24403    0.82686   1.00
H2       0.56228    0.17600    0.84453   1.00
C5       0.51149    0.15171    0.81483   1.00
H2       0.46679    0.14944    0.82263   1.00
H2       0.49988    0.09891    0.81129   1.00
O_3      0.79693    0.05881    0.83571   1.00
C4       0.83581    0.19790    0.83521   1.00
C3c      0.77558    0.20017    0.83818   1.00
H1       0.74819    0.18252    0.85235   1.00
C3d      0.87126    0.22206    0.81675   1.00
C3       0.74923    0.22417    0.82294   1.00
O2       0.69486    0.23267    0.82784   1.00
C3       0.84447    0.24477    0.80140   1.00
H1       0.87214    0.26053    0.78724   1.00
C2       0.78322    0.24671    0.80407   1.00
C5       0.83208    0.04232    0.82114   1.00
H2       0.85823    0.01656    0.82804   1.00
H2       0.87111    0.08889    0.81306   1.00
C5       0.77998    -0.00597   0.80589   1.00
H2       0.75251    0.01902    0.79942   1.00
H2       0.74165    -0.05253   0.81410   1.00
C5       0.81438    -0.02465   0.78903   1.00
H2       0.84231    -0.04920   0.79540   1.00
H2       0.85094    0.02152    0.78037   1.00
H2       0.77534    -0.06115   0.77828   1.00
C5       0.98691    0.27413    0.81984   1.00
C5       0.63308    0.17331    0.82268   1.00
H2       0.98492    0.27849    0.83660   1.00
H2       0.99384    0.32198    0.81278   1.00
H2       0.62763    0.12874    0.83147   1.00
H2       0.63027    0.16030    0.80620   1.00
H2       0.51827    0.18013    0.80035   1.00
H2       1.10697    0.30278    0.84282   1.00
H2       1.12283    0.36927    0.82456   1.00
C2       0.91434    0.11840    0.88005   1.00
C3       0.93168    0.18755    0.88073   1.00
O2       0.98610    0.23369    0.89229   1.00
C3       0.86821    0.07605    0.86493   1.00
H1       0.85254    0.02250    0.86433   1.00
C3a      0.90436    0.21299    0.86618   1.00
H1       0.92116    0.26686    0.86619   1.00
C3b      0.84284    0.10198    0.85009   1.00
C4       0.86095    0.17096    0.85059   1.00
O_3      0.92791    0.21614    0.81248   1.00
C5       0.96265    0.24761    0.91051   1.00
H2       0.92878    0.26931    0.90745   1.00
C5       1.02565    0.29976    0.92224   1.00
H2       0.93396    0.20049    0.91980   1.00
H2       1.04297    0.35121    0.91571   1.00
H2       1.06712    0.28798    0.91931   1.00
C5       1.01258    0.29943    0.94521   1.00
H2       0.96763    0.30587    0.94779   1.00
H2       1.05759    0.34170    0.95295   1.00
H2       1.00361    0.25099    0.95246   1.00
C5       1.04784    0.26597    0.81448   1.00
H2       1.05677    0.27346    0.79783   1.00
H2       1.03430    0.21243    0.81783   1.00
C5       1.11222    0.31598    0.82636   1.00
H2       1.15703    0.31355    0.82056   1.00
C5       -0.03392   0.36638    0.41219   1.00
H2       -0.04554   0.40305    0.41986   1.00
H2       0.02221    0.38877    0.41331   1.00
C5       -0.07105   0.29689    0.42328   1.00
H2       -0.04199   0.29734    0.43696   1.00
H2       -0.07699   0.25544    0.41293   1.00
O_3      -0.01095   0.37868    0.30684   1.00
C4       -0.02854   0.47018    0.33151   1.00
C3c      -0.01499   0.45824    0.35141   1.00
H1       0.03563    0.46861    0.35540   1.00
C3d      -0.09459   0.45726    0.32671   1.00
C3       -0.06633   0.43199    0.36636   1.00
O2       -0.04734   0.42951    0.38603   1.00
C3       -0.14614   0.42989    0.34145   1.00
H1       -0.19659   0.41853    0.33687   1.00
C2       -0.13350   0.41681    0.36159   1.00
C5       -0.06013   0.35033    0.29125   1.00
H2       -0.03638   0.35822    0.27595   1.00
H2       -0.09405   0.37295    0.29122   1.00
C5       -0.10288   0.27417    0.29515   1.00
H2       -0.12507   0.26628    0.31067   1.00
H2       -0.06861   0.25203    0.29496   1.00
C5       -0.15944   0.23955    0.27924   1.00
H2       -0.13766   0.24763    0.26369   1.00
H2       -0.19506   0.25996    0.27990   1.00
H2       -0.18919   0.18371    0.28208   1.00
C5       -0.09677   0.53088    0.30351   1.00
C5       -0.05484   0.36475    0.39002   1.00
H2       -0.04128   0.56747    0.30521   1.00
H2       -0.12533   0.54601    0.31411   1.00
H2       -0.02092   0.35557    0.37982   1.00
H2       -0.10823   0.32223    0.38754   1.00
H2       -0.12243   0.28542    0.42878   1.00
H2       -0.03076   0.63366    0.27253   1.00
H2       -0.09898   0.63918    0.28531   1.00
C2       0.12333    0.54266    0.28484   1.00
C3       0.11782    0.58944    0.29774   1.00
O2       0.14835    0.65748    0.29254   1.00
C3       0.08006    0.47211    0.28841   1.00
H1       0.08421    0.43499    0.27914   1.00
C3a      0.06867    0.56511    0.31338   1.00
H1       0.06245    0.60156    0.32238   1.00
C3b      0.02977    0.44809    0.30356   1.00
C4       0.02365    0.49466    0.31617   1.00
O_3      -0.11189   0.46326    0.30699   1.00
C5       0.20915    0.69567    0.30367   1.00
H2       0.19907    0.69091    0.32034   1.00
C5       0.23913    0.77028    0.29733   1.00
H2       0.24646    0.67856    0.30023   1.00
H2       0.21132    0.79193    0.30555   1.00
H2       0.22782    0.77078    0.28090   1.00
C5       0.31645    0.81346    0.30129   1.00
H2       0.32732    0.80803    0.31741   1.00
H2       0.33524    0.86832    0.29810   1.00
H2       0.34584    0.79774    0.29119   1.00
C5       -0.11776   0.53471    0.28183   1.00
H2       -0.17448   0.50739    0.28107   1.00
H2       -0.10058   0.50648    0.27186   1.00
C5       -0.08717   0.60884    0.27447   1.00
H2       -0.10914   0.60986    0.25949   1.00
C5       0.39013    1.04189    0.40985   1.00
H2       0.43595    1.05046    0.41843   1.00
H2       0.35341    0.98629    0.41081   1.00
C5       0.35981    1.08274    0.41983   1.00
H2       0.32776    1.05487    0.43316   1.00
H2       0.32804    1.09137    0.40866   1.00
O_3      0.39715    1.01802    0.30471   1.00
C4       0.49870    1.02849    0.33153   1.00
C3c      0.46966    1.01649    0.35098   1.00
H1       0.42658    0.96710    0.35460   1.00
C3d      0.55542    1.09291    0.32720   1.00
C3       0.49483    1.06790    0.36590   1.00
O2       0.46929    1.04999    0.38526   1.00
C3       0.57978    1.14460    0.34190   1.00
H1       0.62183    1.19390    0.33765   1.00
C2       0.55053    1.13356    0.36157   1.00
C5       0.42357    1.06724    0.28910   1.00
H2       0.40935    1.04370    0.27373   1.00
H2       0.48032    1.09821    0.28995   1.00
C5       0.39395    1.11392    0.29182   1.00
H2       0.40652    1.13596    0.30739   1.00
H2       0.33733    1.08257    0.29076   1.00
C5       0.42204    1.17069    0.27582   1.00
H2       0.41009    1.14903    0.26024   1.00
H2       0.47831    1.20347    0.27733   1.00
H2       0.39868    1.20338    0.27778   1.00
C5       0.63250    1.08946    0.30567   1.00
C5       0.41417    1.06193    0.38792   1.00
H2       0.60996    1.03345    0.30754   1.00
H2       0.67463    1.11592    0.31690   1.00
H2       0.37215    1.02990    0.37716   1.00
H2       0.42899    1.11635    0.38513   1.00
H2       0.40090    1.13303    0.42565   1.00
H2       0.66850    1.01825    0.27625   1.00
H2       0.74199    1.08356    0.28989   1.00
C2       0.41971    0.87678    0.28481   1.00
C3       0.46798    0.87879    0.29876   1.00
O2       0.50266    0.84444    0.29471   1.00
C3       0.39608    0.92355    0.28733   1.00
H1       0.35784    0.92217    0.27722   1.00
C3a      0.49261    0.92795    0.31439   1.00
H1       0.53239    0.93136    0.32424   1.00
C3b      0.42227    0.97378    0.30249   1.00
C4       0.47103    0.97640    0.31615   1.00
O_3      0.58259    1.10894    0.30785   1.00
C5       0.47448    0.78329    0.30595   1.00
H2       0.47733    0.79347    0.32260   1.00
C5       0.51625    0.74899    0.30090   1.00
H2       0.42013    0.74863    0.30173   1.00
H2       0.56429    0.77423    0.30990   1.00
H2       0.53137    0.75969    0.28465   1.00
C5       0.47708    0.67152    0.30493   1.00
H2       0.45774    0.66160    0.32077   1.00
H2       0.51088    0.64944    0.30272   1.00
H2       0.43343    0.64431    0.29417   1.00
C5       0.66176    1.10919    0.28436   1.00
H2       0.69430    1.16571    0.28364   1.00
H2       0.61871    1.09463    0.27360   1.00
C5       0.70262    1.07432    0.27828   1.00
H2       0.72899    1.09525    0.26360   1.00
C5       0.65103    0.60948    0.40995   1.00
H2       0.61380    0.56356    0.41849   1.00
H2       0.63201    0.64608    0.41092   1.00
C5       0.72214    0.63989    0.41997   1.00
H2       0.72614    0.67181    0.43332   1.00
H2       0.76260    0.67182    0.40884   1.00
O_3      0.62091    0.60317    0.30480   1.00
C4       0.52980    0.50129    0.33153   1.00
C3c      0.54664    0.53020    0.35100   1.00
H1       0.54015    0.57316    0.35464   1.00
C3d      0.53771    0.44472    0.32718   1.00
C3       0.57288    0.50504    0.36592   1.00
O2       0.58029    0.53042    0.38530   1.00
C3       0.56505    0.42037    0.34188   1.00
H1       0.57247    0.37843    0.33762   1.00
C2       0.58305    0.44948    0.36158   1.00
C5       0.64395    0.57697    0.28918   1.00
H2       0.63468    0.59126    0.27382   1.00
H2       0.61829    0.52022    0.28999   1.00
C5       0.72025    0.60676    0.29195   1.00
H2       0.72966    0.59412    0.30752   1.00
H2       0.74540    0.66338    0.29093   1.00
C5       0.74918    0.57891    0.27596   1.00
H2       0.73954    0.59094    0.26037   1.00
H2       0.72581    0.52264    0.27743   1.00
H2       0.80523    0.60239    0.27795   1.00
C5       0.45746    0.36768    0.30558   1.00
C5       0.64727    0.58563    0.38801   1.00
H2       0.42386    0.39007    0.30744   1.00
H2       0.44180    0.32548    0.31678   1.00
H2       0.65723    0.62770    0.37727   1.00
H2       0.68700    0.57098    0.38523   1.00
H2       0.73143    0.59884    0.42578   1.00
H2       0.35043    0.33164    0.27609   1.00
H2       0.34234    0.25812    0.28970   1.00
C2       0.45709    0.58030    0.28481   1.00
C3       0.41079    0.53186    0.29872   1.00
O2       0.34180    0.49707    0.29462   1.00
C3       0.52751    0.60409    0.28737   1.00
H1       0.56439    0.64246    0.27730   1.00
C3a      0.43533    0.50723    0.31435   1.00
H1       0.39894    0.46732    0.32416   1.00
C3b      0.55155    0.57790    0.30253   1.00
C4       0.50538    0.52897    0.31615   1.00
O_3      0.52678    0.41770    0.30781   1.00
C5       0.30861    0.52501    0.30586   1.00
H2       0.31584    0.52207    0.32251   1.00
C5       0.23260    0.48312    0.30076   1.00
H2       0.32820    0.57938    0.30167   1.00
H2       0.20983    0.43502    0.30972   1.00
H2       0.22833    0.46813    0.28450   1.00
C5       0.19410    0.52209    0.30478   1.00
H2       0.20335    0.54131    0.32064   1.00
H2       0.13825    0.48819    0.30254   1.00
H2       0.21051    0.56581    0.29405   1.00
C5       0.44816    0.33859    0.28425   1.00
H2       0.47228    0.30618    0.28353   1.00
H2       0.47665    0.38174    0.27352   1.00
C5       0.37249    0.29762    0.27812   1.00
H2       0.36722    0.27138    0.26342   1.00
C5       0.32167    0.37678    0.24273   1.00
H2       0.36886    0.42570    0.23943   1.00
H2       0.33392    0.33605    0.23932   1.00
C5       0.30278    0.37459    0.26539   1.00
H2       0.33333    0.35932    0.27501   1.00
H2       0.24762    0.33754    0.26767   1.00
O_3      0.06768    0.24628    0.16900   1.00
C4       0.19771    0.36243    0.16469   1.00
C3c      0.23646    0.36080    0.18109   1.00
H1       0.24767    0.31979    0.18225   1.00
C3d      0.18451    0.41685    0.16331   1.00
C3       0.26046    0.41114    0.19632   1.00
O2       0.30489    0.41082    0.21051   1.00
C3       0.20722    0.46634    0.17866   1.00
H1       0.19379    0.50576    0.17732   1.00
C2       0.24583    0.46505    0.19546   1.00
C5       0.01449    0.25919    0.16408   1.00
H2       -0.02044   0.22341    0.15232   1.00
H2       0.03513    0.31234    0.15839   1.00
C5       -0.02634   0.24988    0.18329   1.00
H2       0.00893    0.28426    0.19522   1.00
H2       -0.04722   0.19648    0.18872   1.00
C5       -0.08403   0.26539    0.17945   1.00
H2       -0.11918   0.23156    0.16744   1.00
H2       -0.06310   0.31939    0.17470   1.00
H2       -0.11422   0.25685    0.19354   1.00
C5       0.18135    0.45038    0.13089   1.00
C5       0.26830    0.37322    0.22776   1.00
H2       0.20550    0.42192    0.12465   1.00
H2       0.22209    0.50380    0.13418   1.00
H2       0.23222    0.31917    0.22347   1.00
H2       0.23763    0.39406    0.23486   1.00
H2       0.31427    0.42597    0.27088   1.00
H2       0.17193    0.42591    0.08770   1.00
H2       0.21589    0.51614    0.09400   1.00
C2       0.11684    0.20682    0.11912   1.00
C3       0.18359    0.26284    0.11716   1.00
O2       0.21677    0.27734    0.09872   1.00
C3       0.07935    0.20203    0.13682   1.00
H1       0.02880    0.15888    0.13902   1.00
C3a      0.21044    0.31311    0.13247   1.00
H1       0.26009    0.35763    0.13021   1.00
C3b      0.10536    0.25320    0.15171   1.00
C4       0.17132    0.30939    0.14960   1.00
O_3      0.14232    0.41805    0.14832   1.00
C5       0.26473    0.25487    0.09858   1.00
H2       0.30365    0.28014    0.11078   1.00
C5       0.29996    0.27376    0.07787   1.00
H2       0.23914    0.19857    0.10073   1.00
H2       0.33952    0.32880    0.07808   1.00
H2       0.26116    0.26803    0.06645   1.00
C5       0.33186    0.22984    0.07201   1.00
H2       0.36635    0.23190    0.08432   1.00
H2       0.36180    0.24877    0.05773   1.00
H2       0.29179    0.17563    0.06921   1.00
C5       0.13318    0.45165    0.11501   1.00
H2       0.11828    0.48959    0.11977   1.00
H2       0.08579    0.40082    0.11493   1.00
C5       0.16548    0.46841    0.09373   1.00
H2       0.13193    0.47590    0.08300   1.00
C5       0.38362    0.57965    0.17041   1.00
H2       0.39580    0.56511    0.18525   1.00
H2       0.39731    0.55320    0.15873   1.00
C5       0.30650    0.55528    0.16944   1.00
H2       0.27661    0.50027    0.16534   1.00
H2       0.29682    0.58549    0.15796   1.00
O_3      0.62043    0.89366    0.12954   1.00
C4       0.63858    0.83526    0.16499   1.00
C3c      0.58596    0.76689    0.16494   1.00
H1       0.58425    0.73291    0.15314   1.00
C3d      0.64043    0.87845    0.18066   1.00
C3       0.53443    0.74153    0.17982   1.00
O2       0.48954    0.67238    0.18023   1.00
C3       0.58847    0.85369    0.19528   1.00
H1       0.59070    0.88932    0.20659   1.00
C2       0.53447    0.78488    0.19533   1.00
C5       0.63323    0.96074    0.13264   1.00
H2       0.67190    0.99776    0.12184   1.00
H2       0.65164    0.97843    0.14839   1.00
C5       0.56659    0.96027    0.12934   1.00
H2       0.52742    0.92188    0.13974   1.00
H2       0.54903    0.94316    0.11352   1.00
C5       0.57541    1.03107    0.13314   1.00
H2       0.61480    1.06975    0.12290   1.00
H2       0.59065    1.04719    0.14914   1.00
H2       0.52657    1.03007    0.13022   1.00
C5       0.74784    0.95809    0.19051   1.00
C5       0.43077    0.65691    0.16876   1.00
H2       0.77131    0.93159    0.18256   1.00
H2       0.73733    0.94002    0.20655   1.00
H2       0.44492    0.67198    0.15260   1.00
H2       0.40430    0.68424    0.17441   1.00
H2       0.28687    0.56041    0.18451   1.00
H2       0.89316    1.03383    0.18345   1.00
H2       0.87138    1.02597    0.21023   1.00
C2       0.79232    0.91730    0.11888   1.00
C3       0.80091    0.88501    0.13603   1.00
O2       0.86430    0.89412    0.14075   1.00
C3       0.73077    0.91866    0.11694   1.00
H1       0.72188    0.94143    0.10374   1.00
C3a      0.74932    0.85673    0.15093   1.00
H1       0.75832    0.83565    0.16452   1.00
C3b      0.68052    0.89244    0.13210   1.00
C4       0.68958    0.86129    0.14929   1.00
O_3      0.68812    0.94734    0.18054   1.00
C5       0.86853    0.83648    0.13481   1.00
H2       0.82902    0.78941    0.14261   1.00
C5       0.93952    0.85004    0.14084   1.00
H2       0.86182    0.82846    0.11810   1.00
H2       0.93921    0.83957    0.15735   1.00
H2       0.97569    0.90556    0.13873   1.00
C5       0.96274    0.80742    0.12849   1.00
H2       0.92342    0.75253    0.12947   1.00
H2       1.01182    0.81433    0.13443   1.00
H2       0.97169    0.82354    0.11222   1.00
C5       0.79816    1.03444    0.19034   1.00
H2       0.77989    1.05957    0.20117   1.00
H2       0.79740    1.05440    0.17495   1.00
C5       0.87097    1.05079    0.19571   1.00
H2       0.90465    1.10674    0.19751   1.00
C5       0.39598    0.75971    0.16455   1.00
H2       0.42047    0.79204    0.17808   1.00
H2       0.42104    0.79282    0.15120   1.00
C5       0.40830    0.69836    0.16465   1.00
H2       0.45985    0.71343    0.15860   1.00
H2       0.36913    0.65625    0.15520   1.00
O_3      0.08308    0.71690    0.13359   1.00
C4       0.16490    0.80343    0.16497   1.00
C3c      0.22867    0.80777    0.16291   1.00
H1       0.25905    0.83101    0.14951   1.00
C3d      0.12655    0.77384    0.18269   1.00
C3       0.25381    0.78152    0.17784   1.00
O2       0.31995    0.79502    0.17595   1.00
C3       0.15085    0.74649    0.19740   1.00
H1       0.11857    0.72211    0.21039   1.00
C2       0.21490    0.74977    0.19544   1.00
C5       0.01529    0.67240    0.13981   1.00
H2       -0.02255   0.67628    0.12992   1.00
H2       0.00696    0.68319    0.15575   1.00
C5       0.00286    0.60006    0.13855   1.00
H2       0.04189    0.59668    0.14798   1.00
H2       0.01070    0.58963    0.12254   1.00
C5       -0.06923   0.54830    0.14578   1.00
H2       -0.10845   0.55172    0.13651   1.00
H2       -0.07632   0.55720    0.16197   1.00
H2       -0.07788   0.49564    0.14432   1.00
C5       0.06471    0.82236    0.19337   1.00
C5       0.32102    0.74090    0.16558   1.00
H2       0.09323    0.86759    0.18340   1.00
H2       0.08964    0.83407    0.20858   1.00
H2       0.29986    0.73571    0.14998   1.00
H2       0.29004    0.69074    0.17341   1.00
H2       0.40652    0.67929    0.18041   1.00
H2       0.00562    0.90766    0.18598   1.00
H2       0.02276    0.90286    0.21269   1.00
C2       0.08231    0.87533    0.11909   1.00
C3       0.12616    0.92057    0.13406   1.00
O2       0.12949    0.98237    0.13728   1.00
C3       0.06944    0.80740    0.11911   1.00
H1       0.03752    0.77199    0.10754   1.00
C3a      0.15441    0.89687    0.14886   1.00
H1       0.18472    0.93106    0.16090   1.00
C3b      0.09584    0.78341    0.13423   1.00
C4       0.13858    0.82816    0.14929   1.00
O_3      0.06130    0.76368    0.18476   1.00
C5       0.18881    1.03550    0.12824   1.00
H2       0.23581    1.03834    0.13465   1.00
C5       0.18933    1.10207    0.13276   1.00
H2       0.18841    1.02824    0.11151   1.00
H2       0.20812    1.11813    0.14853   1.00
H2       0.13541    1.09059    0.13251   1.00
C5       0.23290    1.15942    0.11759   1.00
H2       0.28507    1.16648    0.11686   1.00
H2       0.23671    1.20840    0.12234   1.00
H2       0.20967    1.14769    0.10210   1.00
C5       -0.00805   0.80839    0.19570   1.00
H2       -0.03288   0.77119    0.20829   1.00
H2       -0.03662   0.78323    0.18158   1.00
C5       -0.01051   0.87413    0.19966   1.00
H2       -0.06348   0.86131    0.20338   1.00
C5       1.01694    0.57972    0.58286   1.00
H2       1.05729    0.63423    0.58357   1.00
H2       0.96769    0.57919    0.58375   1.00
C5       1.02237    0.54860    0.56253   1.00
H2       0.99747    0.56137    0.55006   1.00
H2       0.99746    0.49216    0.56389   1.00
O_3      0.93807    0.39002    0.67192   1.00
C4       1.02898    0.53119    0.66861   1.00
C3c      1.01758    0.54997    0.64934   1.00
H1       0.96878    0.54539    0.64589   1.00
C3d      1.09324    0.53848    0.67290   1.00
C3       1.06819    0.57391    0.63418   1.00
O2       1.05635    0.59909    0.61660   1.00
C3       1.14329    0.56106    0.65772   1.00
H1       1.19094    0.56352    0.66148   1.00
C2       1.13235    0.57956    0.63807   1.00
C5       0.96743    0.35545    0.68173   1.00
H2       0.93656    0.32499    0.69495   1.00
H2       1.01997    0.39197    0.68719   1.00
C5       0.97098    0.30721    0.66640   1.00
H2       1.00019    0.33739    0.65293   1.00
H2       0.91820    0.27060    0.66120   1.00
C5       1.00464    0.26915    0.67564   1.00
H2       0.97600    0.23928    0.68919   1.00
H2       1.05814    0.30552    0.68020   1.00
H2       1.00542    0.23305    0.66436   1.00
C5       1.12810    0.56856    0.70562   1.00
C5       1.02698    0.54684    0.60186   1.00
H2       1.08873    0.58313    0.70862   1.00
H2       1.17602    0.61485    0.70066   1.00
H2       0.97690    0.50472    0.60735   1.00
H2       1.05985    0.52421    0.59835   1.00
H2       1.07678    0.56969    0.55791   1.00
H2       1.09911    0.58327    0.74739   1.00
H2       1.18737    0.64135    0.74045   1.00
C2       0.87463    0.45087    0.71456   1.00
C3       0.91731    0.52206    0.71250   1.00
O2       0.92185    0.56533    0.72792   1.00
C3       0.88207    0.40770    0.70055   1.00
H1       0.84901    0.35307    0.70139   1.00
C3a      0.96702    0.54817    0.69703   1.00
H1       1.00186    0.60255    0.69637   1.00
C3b      0.93299    0.43372    0.68559   1.00
C4       0.97607    0.50444    0.68375   1.00
O_3      1.10532    0.51589    0.69109   1.00
C5       0.88285    0.59631    0.72315   1.00
H2       0.90090    0.62639    0.70880   1.00
C5       0.89144    0.64412    0.74073   1.00
H2       0.82788    0.55735    0.72144   1.00
H2       0.94119    0.69208    0.73890   1.00
H2       0.89519    0.61961    0.75495   1.00
C5       0.83266    0.65976    0.74217   1.00
H2       0.82618    0.67913    0.72733   1.00
H2       0.84351    0.69900    0.75400   1.00
H2       0.78371    0.61344    0.74657   1.00
C5       1.14190    0.54189    0.72520   1.00
H2       1.18896    0.53855    0.72315   1.00
H2       1.09914    0.48896    0.72772   1.00
C5       1.14891    0.58711    0.74352   1.00
H2       1.16592    0.57035    0.75706   1.00
C5       0.57658    -0.02169   0.58423   1.00
H2       0.58708    -0.06444   0.58567   1.00
H2       0.62680    0.02572    0.58567   1.00
C5       0.54477    -0.02481   0.56320   1.00
H2       0.58499    -0.00191   0.55132   1.00
H2       0.51610    0.00325    0.56362   1.00
O_3      0.46001    0.06870    0.66988   1.00
C4       0.50214    -0.02901   0.66863   1.00
C3c      0.53542    -0.01957   0.64993   1.00
H1       0.58206    0.02765    0.64693   1.00
C3d      0.44195    -0.09131   0.67233   1.00
C3       0.50882    -0.07011   0.63475   1.00
O2       0.54838    -0.06071   0.61788   1.00
C3       0.41464    -0.14121   0.65711   1.00
H1       0.36709    -0.18717   0.66037   1.00
C2       0.44723    -0.13220   0.63803   1.00
C5       0.39473    0.04306    0.67859   1.00
H2       0.39501    0.07507    0.69148   1.00
H2       0.37450    -0.01008   0.68423   1.00
C5       0.34753    0.04302    0.66220   1.00
H2       0.34872    0.01262    0.64908   1.00
H2       0.36787    0.09640    0.65681   1.00
C5       0.27455    0.01349    0.67022   1.00
H2       0.27305    0.04333    0.68341   1.00
H2       0.25335    -0.04056   0.67495   1.00
H2       0.24114    0.01527    0.65817   1.00
C5       0.42891    -0.12674   0.70525   1.00
C5       0.53124    -0.02879   0.60237   1.00
H2       0.48304    -0.08991   0.70900   1.00
H2       0.42471    -0.17622   0.70076   1.00
H2       0.54157    0.02248    0.60750   1.00
H2       0.47618    -0.05878   0.59800   1.00
H2       0.50962    -0.07871   0.55844   1.00
H2       0.46547    -0.09958   0.74758   1.00
H2       0.43125    -0.18873   0.74092   1.00
C2       0.57629    0.12565    0.71448   1.00
C3       0.60088    0.07941    0.71349   1.00
O2       0.63494    0.07203    0.72976   1.00
C3       0.52970    0.12151    0.69947   1.00
H1       0.51128    0.15728    0.69950   1.00
C3a      0.57735    0.02958    0.69805   1.00
H1       0.59366    -0.00788   0.69818   1.00
C3b      0.50474    0.07053    0.68453   1.00
C4       0.52842    0.02394    0.68375   1.00
O_3      0.40452    -0.10112   0.68986   1.00
C5       0.70583    0.10724    0.72611   1.00
H2       0.71862    0.08758    0.71225   1.00
C5       0.73966    0.09566    0.74461   1.00
H2       0.72556    0.16293    0.72418   1.00
H2       0.73462    0.04432    0.74326   1.00
H2       0.70972    0.09395    0.75822   1.00
C5       0.81517    0.15106    0.74705   1.00
H2       0.84311    0.15576    0.73273   1.00
H2       0.83947    0.13788    0.75958   1.00
H2       0.82050    0.20154    0.75099   1.00
C5       0.38554    -0.13790   0.72405   1.00
H2       0.33407    -0.18293   0.72140   1.00
H2       0.37847    -0.09292   0.72590   1.00
C5       0.41839    -0.14778   0.74324   1.00
H2       0.38229    -0.16280   0.75619   1.00
C5       0.40248    0.42396    0.58417   1.00
H2       0.34918    0.41331    0.58557   1.00
H2       0.39980    0.37379    0.58558   1.00
C5       0.43127    0.45596    0.56317   1.00
H2       0.41414    0.41584    0.55126   1.00
H2       0.48800    0.48476    0.56362   1.00
O_3      0.60875    0.54033    0.66996   1.00
C4       0.46884    0.49785    0.66862   1.00
C3c      0.44520    0.46470    0.64990   1.00
H1       0.44595    0.41815    0.64689   1.00
C3d      0.46652    0.55792    0.67236   1.00
C3       0.42127    0.49130    0.63472   1.00
O2       0.39131    0.45184    0.61782   1.00
C3       0.44393    0.58524    0.65713   1.00
H1       0.44535    0.63270    0.66042   1.00
C2       0.42055    0.55277    0.63803   1.00
C5       0.64819    0.60557    0.67871   1.00
H2       0.67987    0.60528    0.69162   1.00
H2       0.61513    0.62563    0.68436   1.00
C5       0.69541    0.65296    0.66237   1.00
H2       0.66386    0.65177    0.64924   1.00
H2       0.72859    0.63279    0.65699   1.00
C5       0.73864    0.72589    0.67044   1.00
H2       0.76991    0.72739    0.68365   1.00
H2       0.70564    0.74694    0.67517   1.00
H2       0.77388    0.75945    0.65842   1.00
C5       0.44380    0.57063    0.70527   1.00
C5       0.44051    0.46922    0.60234   1.00
H2       0.42661    0.51650    0.70899   1.00
H2       0.39847    0.57472    0.70077   1.00
H2       0.48149    0.45898    0.60749   1.00
H2       0.46547    0.52430    0.59801   1.00
H2       0.41243    0.49105    0.55841   1.00
H2       0.43418    0.53378    0.74758   1.00
H2       0.37911    0.56783    0.74091   1.00
C2       0.54934    0.42371    0.71448   1.00
C3       0.47850    0.39896    0.71345   1.00
O2       0.43696    0.36470    0.72969   1.00
C3       0.59184    0.47048    0.69951   1.00
H1       0.64604    0.48903    0.69958   1.00
C3a      0.45219    0.42249    0.69801   1.00
H1       0.39839    0.40605    0.69811   1.00
C3b      0.56581    0.49543    0.68457   1.00
C4       0.49552    0.47159    0.68375   1.00
O_3      0.49393    0.59524    0.68992   1.00
C5       0.40147    0.29384    0.72599   1.00
H2       0.36911    0.28108    0.71211   1.00
C5       0.35595    0.25978    0.74445   1.00
H2       0.43756    0.27426    0.72407   1.00
H2       0.30958    0.26469    0.74309   1.00
H2       0.38404    0.28966    0.75809   1.00
C5       0.33602    0.18431    0.74685   1.00
H2       0.31293    0.15645    0.73251   1.00
H2       0.29845    0.15984    0.75936   1.00
H2       0.38123    0.17910    0.75081   1.00
C5       0.47579    0.61389    0.72411   1.00
H2       0.48210    0.66532    0.72148   1.00
H2       0.52788    0.62109    0.72598   1.00
C5       0.43295    0.58081    0.74326   1.00
H2       0.45385    0.61682    0.75624   1.00
C5       0.29279    -0.32101   0.17384   1.00
H2       0.25448    -0.32271   0.16298   1.00
H2       0.27305    -0.32010   0.18919   1.00
C5       0.29913    -0.38552   0.17118   1.00
H2       0.25741    -0.42967   0.17938   1.00
H2       0.34911    -0.37601   0.17715   1.00
O_3      0.58146    -0.00609   0.19227   1.00
C4       0.46911    -0.02827   0.16840   1.00
C3c      0.41745    -0.09528   0.17259   1.00
H1       0.39605    -0.10845   0.18768   1.00
C3d      0.49562    -0.01193   0.14857   1.00
C3       0.39331    -0.14638   0.15758   1.00
O2       0.33714    -0.20844   0.16210   1.00
C3       0.47261    -0.06300   0.13369   1.00
H1       0.49615    -0.04861   0.11890   1.00
C2       0.42092    -0.13119   0.13773   1.00
C5       0.64418    0.03168    0.18199   1.00
H2       0.68107    0.07787    0.19064   1.00
H2       0.63668    0.04834    0.16675   1.00
C5       0.67461    -0.01433   0.17937   1.00
H2       0.63696    -0.06137   0.17123   1.00
H2       0.68248    -0.03012   0.19468   1.00
C5       0.74207    0.02212    0.16764   1.00
H2       0.77975    0.06940    0.17561   1.00
H2       0.73387    0.03580    0.15209   1.00
H2       0.76428    -0.01177   0.16626   1.00
C5       0.52536    0.09590    0.13860   1.00
C5       0.35819    -0.25347   0.16963   1.00
H2       0.49713    0.10268    0.15135   1.00
H2       0.49101    0.07644    0.12513   1.00
H2       0.38800    -0.23276   0.18390   1.00
H2       0.39129    -0.26138   0.15865   1.00
H2       0.29441    -0.40087   0.15488   1.00
H2       0.55594    0.23289    0.14805   1.00
H2       0.52414    0.20730    0.12237   1.00
C2       0.54999    0.12743    0.21395   1.00
C3       0.49140    0.11479    0.20290   1.00
O2       0.46982    0.16199    0.20284   1.00
C3       0.57868    0.08544    0.21027   1.00
H1       0.62247    0.09266    0.21885   1.00
C3a      0.46414    0.06235    0.18824   1.00
H1       0.42165    0.05586    0.17910   1.00
C3b      0.55277    0.03478    0.19523   1.00
C4       0.49516    0.02296    0.18404   1.00
O_3      0.55003    0.05190    0.14406   1.00
C5       0.41370    0.14102    0.21600   1.00
H2       0.37004    0.09058    0.21135   1.00
C5       0.39220    0.19517    0.21482   1.00
H2       0.42795    0.13708    0.23192   1.00
H2       0.36128    0.18608    0.20082   1.00
H2       0.43939    0.24554    0.21285   1.00
C5       0.35216    0.19578    0.23366   1.00
H2       0.30827    0.14377    0.23632   1.00
H2       0.33253    0.23167    0.23151   1.00
H2       0.38533    0.21334    0.24745   1.00
C5       0.58674    0.16487    0.13342   1.00
H2       0.60794    0.16040    0.11862   1.00
H2       0.62688    0.17711    0.14507   1.00
C5       0.56828    0.22169    0.13264   1.00
H2       0.61223    0.26951    0.12678   1.00
C5       1.05696    0.37662    0.09460   1.00
H2       1.06076    0.41781    0.08458   1.00
H2       1.00272    0.33546    0.09402   1.00
C5       1.10378    0.35046    0.08641   1.00
H2       1.07848    0.31342    0.07382   1.00
H2       1.11640    0.32516    0.09878   1.00
O_3      1.02881    0.41063    0.19853   1.00
C4       1.02842    0.49864    0.16845   1.00
C3c      1.01960    0.46455    0.14993   1.00
H1       0.97271    0.41746    0.14704   1.00
C3d      1.08951    0.56044    0.17180   1.00
C3       1.07111    0.48986    0.13504   1.00
O2       1.05564    0.45834    0.11639   1.00
C3       1.14141    0.58510    0.15716   1.00
H1       1.18831    0.63140    0.16071   1.00
C2       1.13363    0.55087    0.13845   1.00
C5       1.07724    0.44567    0.21394   1.00
H2       1.05379    0.43403    0.22934   1.00
H2       1.10320    0.50197    0.21160   1.00
C5       1.12998    0.42295    0.21304   1.00
H2       1.15205    0.43282    0.19747   1.00
H2       1.10361    0.36680    0.21558   1.00
C5       1.18616    0.46057    0.22889   1.00
H2       1.16442    0.45133    0.24446   1.00
H2       1.21409    0.51645    0.22594   1.00
H2       1.22340    0.44222    0.22830   1.00
C5       1.07634    0.63796    0.19044   1.00
C5       1.07479    0.40774    0.11588   1.00
H2       1.02002    0.60968    0.18846   1.00
H2       1.09948    0.67710    0.17821   1.00
H2       1.04578    0.36788    0.12756   1.00
H2       1.13033    0.42890    0.11903   1.00
H2       1.15205    0.39309    0.07999   1.00
H2       0.99645    0.67135    0.21727   1.00
H2       1.05688    0.74368    0.20218   1.00
C2       0.87691    0.42032    0.21523   1.00
C3       0.87361    0.46144    0.19968   1.00
O2       0.83324    0.49073    0.20193   1.00
C3       0.92903    0.40325    0.21432   1.00
H1       0.93189    0.37042    0.22570   1.00
C3a      0.92284    0.48578    0.18407   1.00
H1       0.92194    0.52036    0.17293   1.00
C3b      0.97919    0.42931    0.19914   1.00
C4       0.97647    0.47104    0.18387   1.00
O_3      1.10280    0.59325    0.19036   1.00
C5       0.77237    0.45388    0.19074   1.00
H2       0.78309    0.45295    0.17425   1.00
C5       0.73119    0.49006    0.19373   1.00
H2       0.74217    0.40035    0.19630   1.00
H2       0.75229    0.53520    0.18350   1.00
H2       0.74034    0.51012    0.20953   1.00
C5       0.65426    0.44310    0.18984   1.00
H2       0.64642    0.41933    0.17461   1.00
H2       0.62696    0.47251    0.19048   1.00
H2       0.63052    0.40230    0.20164   1.00
C5       1.09323    0.67372    0.21093   1.00
H2       1.14894    0.71102    0.21141   1.00
H2       1.08276    0.63501    0.22292   1.00
C5       1.05155    0.70928    0.21496   1.00
H2       1.07018    0.74058    0.22897   1.00
C5       0.60904    0.65021    0.08994   1.00
H2       0.56300    0.61300    0.08143   1.00
H2       0.64551    0.63102    0.08895   1.00
C5       0.63955    0.72124    0.07986   1.00
H2       0.67132    0.72503    0.06650   1.00
H2       0.67166    0.76176    0.09096   1.00
O_3      0.60353    0.62095    0.19510   1.00
C4       0.50129    0.52980    0.16848   1.00
C3c      0.53004    0.54640    0.14898   1.00
H1       0.57288    0.53973    0.14532   1.00
C3d      0.44488    0.53795    0.17285   1.00
C3       0.50488    0.57265    0.13406   1.00
O2       0.53008    0.57982    0.11466   1.00
C3       0.42054    0.56529    0.15814   1.00
H1       0.37873    0.57290    0.16242   1.00
C2       0.44949    0.58305    0.13842   1.00
C5       0.57758    0.64425    0.21072   1.00
H2       0.59195    0.63505    0.22608   1.00
H2       0.52083    0.61873    0.20995   1.00
C5       0.60755    0.72055    0.20790   1.00
H2       0.59483    0.72989    0.19233   1.00
H2       0.66416    0.74556    0.20888   1.00
C5       0.57998    0.74976    0.22389   1.00
H2       0.59209    0.74019    0.23948   1.00
H2       0.52372    0.72652    0.22247   1.00
H2       0.60359    0.80581    0.22186   1.00
C5       0.36788    0.45801    0.19452   1.00
C5       0.58540    0.64670    0.11189   1.00
H2       0.39010    0.42426    0.19267   1.00
H2       0.32561    0.44237    0.18335   1.00
H2       0.62752    0.65663    0.12261   1.00
H2       0.57093    0.68657    0.11465   1.00
H2       0.59856    0.73064    0.07407   1.00
H2       0.33179    0.35117    0.22409   1.00
H2       0.25826    0.34320    0.21052   1.00
C2       0.58032    0.45710    0.21519   1.00
C3       0.53169    0.41077    0.20133   1.00
O2       0.49675    0.34182    0.20548   1.00
C3       0.60429    0.52754    0.21258   1.00
H1       0.64280    0.56444    0.22261   1.00
C3a      0.50705    0.43530    0.18569   1.00
H1       0.46700    0.39890    0.17592   1.00
C3b      0.57808    0.55157    0.19742   1.00
C4       0.52897    0.50538    0.18384   1.00
O_3      0.41803    0.52726    0.19223   1.00
C5       0.52445    0.30838    0.19424   1.00
H2       0.52140    0.31549    0.17759   1.00
C5       0.48242    0.23242    0.19940   1.00
H2       0.57882    0.32786    0.19840   1.00
H2       0.43425    0.20971    0.19047   1.00
H2       0.46757    0.22834    0.21567   1.00
C5       0.52116    0.19370    0.19538   1.00
H2       0.54025    0.20277    0.17951   1.00
H2       0.48715    0.13789    0.19767   1.00
H2       0.56495    0.21009    0.20608   1.00
C5       0.33899    0.44897    0.21587   1.00
H2       0.30672    0.47325    0.21659   1.00
H2       0.38225    0.47745    0.22657   1.00
C5       0.29788    0.37337    0.22206   1.00
H2       0.27179    0.36830    0.23677   1.00
C5       0.34412    0.64138    0.65900   1.00
H2       0.33978    0.60009    0.66907   1.00
H2       0.34377    0.62370    0.64326   1.00
C5       0.28234    0.65180    0.66246   1.00
H2       0.23699    0.61323    0.65390   1.00
H2       0.29497    0.70373    0.65742   1.00
O_3      0.66759    0.92091    0.64316   1.00
C4       0.63835    0.80240    0.66493   1.00
C3c      0.57025    0.75441    0.66040   1.00
H1       0.55621    0.73592    0.64504   1.00
C3d      0.65576    0.82511    0.68509   1.00
C3       0.51922    0.73032    0.67543   1.00
O2       0.45559    0.67742    0.67043   1.00
C3       0.60485    0.80221    0.70001   1.00
H1       0.62022    0.82289    0.71511   1.00
C2       0.53560    0.75425    0.69565   1.00
C5       0.70822    0.98119    0.65430   1.00
H2       0.75533    1.01762    0.64594   1.00
H2       0.72364    0.96964    0.66919   1.00
C5       0.66591    1.01520    0.65803   1.00
H2       0.61793    0.97812    0.66588   1.00
H2       0.65134    1.02707    0.64307   1.00
C5       0.70557    1.08018    0.67073   1.00
H2       0.75379    1.11724    0.66305   1.00
H2       0.71809    1.06806    0.68594   1.00
H2       0.67441    1.10512    0.67292   1.00
C5       0.76168    0.84673    0.69451   1.00
C5       0.41367    0.70349    0.66383   1.00
H2       0.76638    0.81943    0.68114   1.00
H2       0.74047    0.81025    0.70746   1.00
H2       0.43578    0.73534    0.64996   1.00
H2       0.40822    0.73619    0.67554   1.00
H2       0.26710    0.64509    0.67880   1.00
H2       0.89591    0.87068    0.68425   1.00
H2       0.86887    0.83508    0.70951   1.00
C2       0.79433    0.88332    0.61947   1.00
C3       0.77805    0.82183    0.62943   1.00
O2       0.82208    0.79639    0.62855   1.00
C3       0.75578    0.91506    0.62417   1.00
H1       0.76579    0.96122    0.61642   1.00
C3a      0.72553    0.79468    0.64406   1.00
H1       0.71630    0.74970    0.65239   1.00
C3b      0.70506    0.88911    0.63919   1.00
C4       0.68964    0.82856    0.64931   1.00
O_3      0.72098    0.87609    0.69003   1.00
C5       0.79814    0.74229    0.61448   1.00
H2       0.74649    0.69988    0.61877   1.00
C5       0.84886    0.71627    0.61465   1.00
H2       0.79543    0.76006    0.59893   1.00
H2       0.83788    0.68254    0.62809   1.00
H2       0.90063    0.76116    0.61705   1.00
C5       0.84686    0.67830    0.59502   1.00
H2       0.79374    0.63705    0.59202   1.00
H2       0.88010    0.65526    0.59639   1.00
H2       0.86616    0.71374    0.58174   1.00
C5       0.83233    0.90441    0.70021   1.00
H2       0.82935    0.92395    0.71545   1.00
H2       0.84696    0.94701    0.68927   1.00
C5       0.88584    0.88142    0.70000   1.00
H2       0.93490    0.92245    0.70625   1.00
C5       0.42870    0.60517    0.67372   1.00
H2       0.40795    0.64035    0.67457   1.00
H2       0.44414    0.60626    0.65767   1.00
C5       0.49128    0.63102    0.68790   1.00
H2       0.53785    0.67223    0.68046   1.00
H2       0.50011    0.58830    0.69190   1.00
O_3      0.19718    0.25765    0.66556   1.00
C4       0.16421    0.36213    0.66478   1.00
C3c      0.22632    0.42315    0.66225   1.00
H1       0.25520    0.43171    0.64843   1.00
C3d      0.12690    0.35240    0.68278   1.00
C3       0.25260    0.47345    0.67750   1.00
O2       0.30925    0.53512    0.67295   1.00
C3       0.15355    0.40181    0.69816   1.00
H1       0.12429    0.39103    0.71199   1.00
C2       0.21664    0.46348    0.69593   1.00
C5       0.15862    0.20658    0.67998   1.00
H2       0.13144    0.15470    0.67308   1.00
H2       0.12001    0.21625    0.68743   1.00
C5       0.20768    0.20799    0.69595   1.00
H2       0.23623    0.26037    0.70244   1.00
H2       0.24559    0.19764    0.68837   1.00
C5       0.16950    0.15541    0.71268   1.00
H2       0.14049    0.10304    0.70628   1.00
H2       0.13332    0.16708    0.72072   1.00
H2       0.20633    0.15615    0.72397   1.00
C5       0.01151    0.29296    0.67846   1.00
C5       0.36890    0.53460    0.67900   1.00
H2       0.01581    0.29929    0.66170   1.00
H2       0.00593    0.33521    0.68512   1.00
H2       0.37334    0.49425    0.67057   1.00
H2       0.36912    0.52408    0.69557   1.00
H2       0.48398    0.65356    0.70212   1.00
H2       -0.10710   0.20518    0.65439   1.00
H2       -0.12227   0.25786    0.67204   1.00
C2       0.08541    0.20403    0.61996   1.00
C3       0.07117    0.25791    0.61865   1.00
O2       0.01918    0.25205    0.60637   1.00
C3       0.12867    0.20570    0.63571   1.00
H1       0.14198    0.16616    0.63682   1.00
C3a      0.09861    0.31063    0.63322   1.00
H1       0.08408    0.34941    0.63269   1.00
C3b      0.15409    0.25703    0.65055   1.00
C4       0.13904    0.30999    0.64942   1.00
O_3      0.06812    0.29114    0.68667   1.00
C5       0.04609    0.28908    0.58825   1.00
H2       0.08144    0.34431    0.59139   1.00
C5       -0.01435   0.28101    0.57568   1.00
H2       0.07425    0.26876    0.57952   1.00
H2       -0.03033   0.31682    0.58170   1.00
H2       -0.05773   0.22855    0.57838   1.00
C5       0.00181    0.29331    0.55283   1.00
H2       0.04843    0.34370    0.55054   1.00
H2       -0.04121   0.29268    0.54446   1.00
H2       0.00947    0.25243    0.54600   1.00
C5       -0.05188   0.22526    0.68342   1.00
H2       -0.06268   0.22429    0.69993   1.00
H2       -0.04027   0.18363    0.68056   1.00
C5       -0.11383   0.21364    0.67071   1.00
H2       -0.16051   0.16751    0.67619   1.00
C5       0.18768    0.57590    0.67176   1.00
H2       0.24377    0.59867    0.67317   1.00
H2       0.17570    0.56213    0.65551   1.00
C5       0.15145    0.51142    0.68523   1.00
H2       0.14911    0.46668    0.67744   1.00
H2       0.09867    0.49987    0.68878   1.00
O_3      0.05884    0.79705    0.66431   1.00
C4       0.19790    0.83581    0.66479   1.00
C3c      0.20010    0.77553    0.66183   1.00
H1       0.18239    0.74811    0.64767   1.00
C3d      0.22214    0.87130    0.68324   1.00
C3       0.22410    0.74919    0.67707   1.00
O2       0.23252    0.69477    0.67217   1.00
C3       0.24484    0.84451    0.69859   1.00
H1       0.26067    0.87223    0.71274   1.00
C2       0.24672    0.78322    0.69593   1.00
C5       0.04244    0.83228    0.67888   1.00
H2       0.01670    0.85845    0.67199   1.00
H2       0.08905    0.87130    0.68696   1.00
C5       -0.00584   0.78024    0.69415   1.00
H2       0.01912    0.75275    0.70062   1.00
H2       -0.05244   0.74193    0.68596   1.00
C5       -0.02443   0.81473    0.71101   1.00
H2       -0.04895   0.84268    0.70464   1.00
H2       0.02178    0.85128    0.71966   1.00
H2       -0.06092   0.77573    0.72177   1.00
C5       0.27429    0.98695    0.68012   1.00
C5       0.17315    0.63303    0.67736   1.00
H2       0.27860    0.98491    0.66337   1.00
H2       0.32214    0.99385    0.68717   1.00
H2       0.12857    0.62760    0.66857   1.00
H2       0.16018    0.63028    0.69383   1.00
H2       0.17989    0.51821    0.69970   1.00
H2       0.30299    1.10698    0.65712   1.00
H2       0.36951    1.12282    0.67537   1.00
C2       0.11840    0.91434    0.61995   1.00
C3       0.18753    0.93162    0.61925   1.00
O2       0.23368    0.98599    0.60768   1.00
C3       0.07606    0.86828    0.63508   1.00
H1       0.02253    0.85265    0.63570   1.00
C3a      0.21297    0.90430    0.63381   1.00
H1       0.26683    0.92105    0.63378   1.00
C3b      0.10200    0.84291    0.64993   1.00
C4       0.17096    0.86095    0.64941   1.00
O_3      0.21629    0.92800    0.68750   1.00
C5       0.24752    0.96247    0.58946   1.00
H2       0.26917    0.92856    0.59252   1.00
C5       0.29967    1.02540    0.57771   1.00
H2       0.20036    0.93378    0.58019   1.00
H2       0.35113    1.04270    0.58423   1.00
H2       0.28795    1.06692    0.58064   1.00
C5       0.29926    1.01227    0.55475   1.00
H2       0.30564    0.96728    0.55217   1.00
H2       0.34154    1.05723    0.54699   1.00
H2       0.25082    1.00333    0.54750   1.00
C5       0.26622    1.04793    0.68548   1.00
H2       0.27376    1.05691    0.70213   1.00
H2       0.21268    1.03443    0.68214   1.00
C5       0.31623    1.11226    0.67358   1.00
H2       0.31388    1.15712    0.67937   1.00
