data_IRMOF10_interpen_symm_ligand4cp_label_f_1.

_audit_creation_method             'generated by an auxiliary program of Tobunporous'

_symmetry_space_group_name_H-M     'P 1'
_symmetry_Int_Tables_number        1
_symmetry_cell_setting             triclinic

_cell_length_a                    22.6523
_cell_length_b                    22.6523
_cell_length_c                    65.9502
_cell_angle_alpha                 90.0000
_cell_angle_beta                  90.0000
_cell_angle_gamma                 120.0000

loop_
_atom_site_label
_atom_site_fract_x
_atom_site_fract_y
_atom_site_fract_z
_atom_site_occupancy
O1       0.00000    0.00000    0.57470   1.00
Zn1      0.00000    0.00000    0.54560   1.00
Zn1      0.94843    0.04287    0.58357   1.00
Zn1      0.09443    0.05157    0.58357   1.00
Zn1      0.95713    0.90557    0.58357   1.00
O2       0.93860    0.02610    0.53560   1.00
O2       0.08750    0.06140    0.53560   1.00
O2       0.97390    0.91250    0.53560   1.00
O2       0.91300    0.07160    0.56150   1.00
O2       0.00463    0.12027    0.60077   1.00
O2       0.87413    0.98077    0.60037   1.00
O2       0.15860    0.08700    0.56150   1.00
O2       0.10663    0.12587    0.60037   1.00
O2       0.11563    0.99537    0.60077   1.00
O2       0.92840    0.84140    0.56150   1.00
O2       0.87973    0.88437    0.60077   1.00
O2       0.01923    0.89337    0.60037   1.00
C1       0.91390    0.06020    0.54330   1.00
C1       0.14630    0.08610    0.54330   1.00
C1       0.93980    0.85370    0.54330   1.00
C1       0.06663    0.14397    0.60637   1.00
C1       0.85603    0.92267    0.60637   1.00
C1       0.07733    0.93337    0.60637   1.00
O1       0.00000    0.00000    0.92530   1.00
Zn1      0.00000    0.00000    0.95440   1.00
Zn1      0.04287    0.94843    0.91643   1.00
Zn1      0.05157    0.09443    0.91643   1.00
Zn1      0.90557    0.95713    0.91643   1.00
O2       0.02610    0.93860    0.96440   1.00
O2       0.06140    0.08750    0.96440   1.00
O2       0.91250    0.97390    0.96440   1.00
O2       0.07160    0.91300    0.93850   1.00
O2       0.12027    0.00463    0.89923   1.00
O2       0.98077    0.87413    0.89963   1.00
O2       0.08700    0.15860    0.93850   1.00
O2       0.12587    0.10663    0.89963   1.00
O2       0.99537    0.11563    0.89923   1.00
O2       0.84140    0.92840    0.93850   1.00
O2       0.88437    0.87973    0.89923   1.00
O2       0.89337    0.01923    0.89963   1.00
C1       0.06020    0.91390    0.95670   1.00
C1       0.08610    0.14630    0.95670   1.00
C1       0.85370    0.93980    0.95670   1.00
C1       0.14397    0.06663    0.89363   1.00
C1       0.92267    0.85603    0.89363   1.00
C1       0.93337    0.07733    0.89363   1.00
O1       0.00000    0.00000    0.42530   1.00
Zn1      0.00000    0.00000    0.45440   1.00
Zn1      0.05157    0.95713    0.41643   1.00
Zn1      0.90557    0.94843    0.41643   1.00
Zn1      0.04287    0.09443    0.41643   1.00
O2       0.06140    0.97390    0.46440   1.00
O2       0.91250    0.93860    0.46440   1.00
O2       0.02610    0.08750    0.46440   1.00
O2       0.08700    0.92840    0.43850   1.00
O2       0.99537    0.87973    0.39923   1.00
O2       0.12587    0.01923    0.39963   1.00
O2       0.84140    0.91300    0.43850   1.00
O2       0.89337    0.87413    0.39963   1.00
O2       0.88437    0.00463    0.39923   1.00
O2       0.07160    0.15860    0.43850   1.00
O2       0.12027    0.11563    0.39923   1.00
O2       0.98077    0.10663    0.39963   1.00
C1       0.08610    0.93980    0.45670   1.00
C1       0.85370    0.91390    0.45670   1.00
C1       0.06020    0.14630    0.45670   1.00
C1       0.93337    0.85603    0.39363   1.00
C1       0.14397    0.07733    0.39363   1.00
C1       0.92267    0.06663    0.39363   1.00
O1       0.00000    0.00000    0.07470   1.00
Zn1      0.00000    0.00000    0.04560   1.00
Zn1      0.95713    0.05157    0.08357   1.00
Zn1      0.94843    0.90557    0.08357   1.00
Zn1      0.09443    0.04287    0.08357   1.00
O2       0.97390    0.06140    0.03560   1.00
O2       0.93860    0.91250    0.03560   1.00
O2       0.08750    0.02610    0.03560   1.00
O2       0.92840    0.08700    0.06150   1.00
O2       0.87973    0.99537    0.10077   1.00
O2       0.01923    0.12587    0.10037   1.00
O2       0.91300    0.84140    0.06150   1.00
O2       0.87413    0.89337    0.10037   1.00
O2       0.00463    0.88437    0.10077   1.00
O2       0.15860    0.07160    0.06150   1.00
O2       0.11563    0.12027    0.10077   1.00
O2       0.10663    0.98077    0.10037   1.00
C1       0.93980    0.08610    0.04330   1.00
C1       0.91390    0.85370    0.04330   1.00
C1       0.14630    0.06020    0.04330   1.00
C1       0.85603    0.93337    0.10637   1.00
C1       0.07733    0.14397    0.10637   1.00
C1       0.06663    0.92267    0.10637   1.00
O1       0.66667    0.33333    0.90803   1.00
Zn1      0.66667    0.33333    0.87893   1.00
Zn1      0.61510    0.37620    0.91690   1.00
Zn1      0.76110    0.38490    0.91690   1.00
Zn1      0.62380    0.23890    0.91690   1.00
O2       0.60527    0.35943    0.86893   1.00
O2       0.75417    0.39473    0.86893   1.00
O2       0.64057    0.24583    0.86893   1.00
O2       0.57967    0.40493    0.89483   1.00
O2       0.67130    0.45360    0.93410   1.00
O2       0.54080    0.31410    0.93370   1.00
O2       0.82527    0.42033    0.89483   1.00
O2       0.77330    0.45920    0.93370   1.00
O2       0.78230    0.32870    0.93410   1.00
O2       0.59507    0.17473    0.89483   1.00
O2       0.54640    0.21770    0.93410   1.00
O2       0.68590    0.22670    0.93370   1.00
C1       0.58057    0.39353    0.87663   1.00
C1       0.81297    0.41943    0.87663   1.00
C1       0.60647    0.18703    0.87663   1.00
C1       0.73330    0.47730    0.93970   1.00
C1       0.52270    0.25600    0.93970   1.00
C1       0.74400    0.26670    0.93970   1.00
O1       0.66667    0.33333    0.25863   1.00
Zn1      0.66667    0.33333    0.28773   1.00
Zn1      0.70953    0.28177    0.24977   1.00
Zn1      0.71823    0.42777    0.24977   1.00
Zn1      0.57223    0.29047    0.24977   1.00
O2       0.69277    0.27193    0.29773   1.00
O2       0.72807    0.42083    0.29773   1.00
O2       0.57917    0.30723    0.29773   1.00
O2       0.73827    0.24633    0.27183   1.00
O2       0.78693    0.33797    0.23257   1.00
O2       0.64743    0.20747    0.23297   1.00
O2       0.75367    0.49193    0.27183   1.00
O2       0.79253    0.43997    0.23297   1.00
O2       0.66203    0.44897    0.23257   1.00
O2       0.50807    0.26173    0.27183   1.00
O2       0.55103    0.21307    0.23257   1.00
O2       0.56003    0.35257    0.23297   1.00
C1       0.72687    0.24723    0.29003   1.00
C1       0.75277    0.47963    0.29003   1.00
C1       0.52037    0.27313    0.29003   1.00
C1       0.81063    0.39997    0.22697   1.00
C1       0.58933    0.18937    0.22697   1.00
C1       0.60003    0.41067    0.22697   1.00
O1       0.66667    0.33333    0.75863   1.00
Zn1      0.66667    0.33333    0.78773   1.00
Zn1      0.71823    0.29047    0.74977   1.00
Zn1      0.57223    0.28177    0.74977   1.00
Zn1      0.70953    0.42777    0.74977   1.00
O2       0.72807    0.30723    0.79773   1.00
O2       0.57917    0.27193    0.79773   1.00
O2       0.69277    0.42083    0.79773   1.00
O2       0.75367    0.26173    0.77183   1.00
O2       0.66203    0.21307    0.73257   1.00
O2       0.79253    0.35257    0.73297   1.00
O2       0.50807    0.24633    0.77183   1.00
O2       0.56003    0.20747    0.73297   1.00
O2       0.55103    0.33797    0.73257   1.00
O2       0.73827    0.49193    0.77183   1.00
O2       0.78693    0.44897    0.73257   1.00
O2       0.64743    0.43997    0.73297   1.00
C1       0.75277    0.27313    0.79003   1.00
C1       0.52037    0.24723    0.79003   1.00
C1       0.72687    0.47963    0.79003   1.00
C1       0.60003    0.18937    0.72697   1.00
C1       0.81063    0.41067    0.72697   1.00
C1       0.58933    0.39997    0.72697   1.00
O1       0.66667    0.33333    0.40803   1.00
Zn1      0.66667    0.33333    0.37893   1.00
Zn1      0.62380    0.38490    0.41690   1.00
Zn1      0.61510    0.23890    0.41690   1.00
Zn1      0.76110    0.37620    0.41690   1.00
O2       0.64057    0.39473    0.36893   1.00
O2       0.60527    0.24583    0.36893   1.00
O2       0.75417    0.35943    0.36893   1.00
O2       0.59507    0.42033    0.39483   1.00
O2       0.54640    0.32870    0.43410   1.00
O2       0.68590    0.45920    0.43370   1.00
O2       0.57967    0.17473    0.39483   1.00
O2       0.54080    0.22670    0.43370   1.00
O2       0.67130    0.21770    0.43410   1.00
O2       0.82527    0.40493    0.39483   1.00
O2       0.78230    0.45360    0.43410   1.00
O2       0.77330    0.31410    0.43370   1.00
C1       0.60647    0.41943    0.37663   1.00
C1       0.58057    0.18703    0.37663   1.00
C1       0.81297    0.39353    0.37663   1.00
C1       0.52270    0.26670    0.43970   1.00
C1       0.74400    0.47730    0.43970   1.00
C1       0.73330    0.25600    0.43970   1.00
O1       0.33333    0.66667    0.24137   1.00
Zn1      0.33333    0.66667    0.21227   1.00
Zn1      0.28177    0.70953    0.25023   1.00
Zn1      0.42777    0.71823    0.25023   1.00
Zn1      0.29047    0.57223    0.25023   1.00
O2       0.27193    0.69277    0.20227   1.00
O2       0.42083    0.72807    0.20227   1.00
O2       0.30723    0.57917    0.20227   1.00
O2       0.24633    0.73827    0.22817   1.00
O2       0.33797    0.78693    0.26743   1.00
O2       0.20747    0.64743    0.26703   1.00
O2       0.49193    0.75367    0.22817   1.00
O2       0.43997    0.79253    0.26703   1.00
O2       0.44897    0.66203    0.26743   1.00
O2       0.26173    0.50807    0.22817   1.00
O2       0.21307    0.55103    0.26743   1.00
O2       0.35257    0.56003    0.26703   1.00
C1       0.24723    0.72687    0.20997   1.00
C1       0.47963    0.75277    0.20997   1.00
C1       0.27313    0.52037    0.20997   1.00
C1       0.39997    0.81063    0.27303   1.00
C1       0.18937    0.58933    0.27303   1.00
C1       0.41067    0.60003    0.27303   1.00
O1       0.33333    0.66667    0.59197   1.00
Zn1      0.33333    0.66667    0.62107   1.00
Zn1      0.37620    0.61510    0.58310   1.00
Zn1      0.38490    0.76110    0.58310   1.00
Zn1      0.23890    0.62380    0.58310   1.00
O2       0.35943    0.60527    0.63107   1.00
O2       0.39473    0.75417    0.63107   1.00
O2       0.24583    0.64057    0.63107   1.00
O2       0.40493    0.57967    0.60517   1.00
O2       0.45360    0.67130    0.56590   1.00
O2       0.31410    0.54080    0.56630   1.00
O2       0.42033    0.82527    0.60517   1.00
O2       0.45920    0.77330    0.56630   1.00
O2       0.32870    0.78230    0.56590   1.00
O2       0.17473    0.59507    0.60517   1.00
O2       0.21770    0.54640    0.56590   1.00
O2       0.22670    0.68590    0.56630   1.00
C1       0.39353    0.58057    0.62337   1.00
C1       0.41943    0.81297    0.62337   1.00
C1       0.18703    0.60647    0.62337   1.00
C1       0.47730    0.73330    0.56030   1.00
C1       0.25600    0.52270    0.56030   1.00
C1       0.26670    0.74400    0.56030   1.00
O1       0.33333    0.66667    0.09197   1.00
Zn1      0.33333    0.66667    0.12107   1.00
Zn1      0.38490    0.62380    0.08310   1.00
Zn1      0.23890    0.61510    0.08310   1.00
Zn1      0.37620    0.76110    0.08310   1.00
O2       0.39473    0.64057    0.13107   1.00
O2       0.24583    0.60527    0.13107   1.00
O2       0.35943    0.75417    0.13107   1.00
O2       0.42033    0.59507    0.10517   1.00
O2       0.32870    0.54640    0.06590   1.00
O2       0.45920    0.68590    0.06630   1.00
O2       0.17473    0.57967    0.10517   1.00
O2       0.22670    0.54080    0.06630   1.00
O2       0.21770    0.67130    0.06590   1.00
O2       0.40493    0.82527    0.10517   1.00
O2       0.45360    0.78230    0.06590   1.00
O2       0.31410    0.77330    0.06630   1.00
C1       0.41943    0.60647    0.12337   1.00
C1       0.18703    0.58057    0.12337   1.00
C1       0.39353    0.81297    0.12337   1.00
C1       0.26670    0.52270    0.06030   1.00
C1       0.47730    0.74400    0.06030   1.00
C1       0.25600    0.73330    0.06030   1.00
O1       0.33333    0.66667    0.74137   1.00
Zn1      0.33333    0.66667    0.71227   1.00
Zn1      0.29047    0.71823    0.75023   1.00
Zn1      0.28177    0.57223    0.75023   1.00
Zn1      0.42777    0.70953    0.75023   1.00
O2       0.30723    0.72807    0.70227   1.00
O2       0.27193    0.57917    0.70227   1.00
O2       0.42083    0.69277    0.70227   1.00
O2       0.26173    0.75367    0.72817   1.00
O2       0.21307    0.66203    0.76743   1.00
O2       0.35257    0.79253    0.76703   1.00
O2       0.24633    0.50807    0.72817   1.00
O2       0.20747    0.56003    0.76703   1.00
O2       0.33797    0.55103    0.76743   1.00
O2       0.49193    0.73827    0.72817   1.00
O2       0.44897    0.78693    0.76743   1.00
O2       0.43997    0.64743    0.76703   1.00
C1       0.27313    0.75277    0.70997   1.00
C1       0.24723    0.52037    0.70997   1.00
C1       0.47963    0.72687    0.70997   1.00
C1       0.18937    0.60003    0.77303   1.00
C1       0.41067    0.81063    0.77303   1.00
C1       0.39997    0.58933    0.77303   1.00
C4       0.83081    0.63196    0.48734   1.00
C4       0.85794    0.68466    0.50231   1.00
C3       0.87287    0.62360    0.47290   1.00
C3       0.92937    0.72804    0.50525   1.00
C3       0.75897    0.58545    0.48654   1.00
C3       0.81265    0.69504    0.51497   1.00
C2       0.77639    0.52338    0.45770   1.00
C2       0.91287    0.79340    0.53189   1.00
C3       0.84666    0.57081    0.45858   1.00
C3       0.95612    0.78100    0.51951   1.00
C3       0.73437    0.53216    0.47181   1.00
C3       0.84195    0.74978    0.52923   1.00
H1       0.92405    0.65597    0.47210   1.00
H1       0.96466    0.72235    0.49729   1.00
C5       0.71374    0.59303    0.50013   1.00
C5       0.74027    0.65117    0.51330   1.00
H1       0.87973    0.56739    0.44863   1.00
H1       1.00813    0.81066    0.52084   1.00
H1       0.68367    0.49782    0.47086   1.00
H1       0.81141    0.75906    0.53841   1.00
C6       0.63888    0.53929    0.50057   1.00
C6       0.69289    0.66720    0.52524   1.00
H2       0.63407    0.48896    0.50016   1.00
H2       0.71126    0.72172    0.52428   1.00
H2       0.61569    0.53811    0.51511   1.00
H2       0.64312    0.64587    0.51810   1.00
C6       0.59649    0.54823    0.48327   1.00
C6       0.68330    0.64223    0.54781   1.00
H2       0.62452    0.55938    0.46898   1.00
H2       0.73277    0.65498    0.55425   1.00
C6       0.52250    0.48781    0.47942   1.00
C6       0.64811    0.66896    0.56273   1.00
H2       0.59343    0.59384    0.48669   1.00
H2       0.65373    0.58655    0.54770   1.00
C6       0.52288    0.42370    0.47130   1.00
C6       0.69253    0.74689    0.56631   1.00
C6       0.47831    0.46875    0.49887   1.00
C6       0.57687    0.65241    0.55497   1.00
C6       0.48832    0.51016    0.46305   1.00
C6       0.63851    0.63310    0.58353   1.00
H2       0.55458    0.43573    0.45774   1.00
H2       0.74359    0.76040    0.57148   1.00
H2       0.54245    0.40270    0.48257   1.00
H2       0.69788    0.77558    0.55251   1.00
H2       0.47151    0.38354    0.46733   1.00
H2       0.66986    0.76421    0.57778   1.00
H2       0.42560    0.42999    0.49568   1.00
H2       0.55078    0.66686    0.56614   1.00
H2       0.49750    0.44822    0.51043   1.00
H2       0.58108    0.68015    0.54103   1.00
H2       0.47835    0.51335    0.50514   1.00
H2       0.54503    0.59800    0.55192   1.00
H2       0.51720    0.52353    0.44889   1.00
H2       0.68751    0.64376    0.58980   1.00
H2       0.43656    0.46939    0.45972   1.00
H2       0.61446    0.65048    0.59454   1.00
H2       0.48528    0.55449    0.46807   1.00
H2       0.60636    0.57792    0.58208   1.00
C4       0.35922    0.18536    0.48451   1.00
C4       0.30308    0.15925    0.49831   1.00
C3       0.41308    0.17043    0.48642   1.00
C3       0.29316    0.11080    0.51365   1.00
C3       0.36251    0.22821    0.46810   1.00
C3       0.25444    0.18181    0.49693   1.00
C2       0.47105    0.23540    0.45604   1.00
C2       0.19145    0.10892    0.52687   1.00
C3       0.46716    0.19434    0.47258   1.00
C3       0.23929    0.08659    0.52757   1.00
C3       0.41825    0.25120    0.45428   1.00
C3       0.20052    0.15619    0.51147   1.00
H1       0.41540    0.14218    0.49805   1.00
H1       0.32432    0.09076    0.51516   1.00
C5       0.31129    0.24735    0.46589   1.00
C5       0.26012    0.22834    0.48127   1.00
H1       0.50428    0.18153    0.47475   1.00
H1       0.23511    0.05189    0.53833   1.00
H1       0.42211    0.28138    0.44234   1.00
H1       0.16520    0.17139    0.51106   1.00
C6       0.31143    0.28662    0.44729   1.00
C6       0.21265    0.25734    0.48130   1.00
H2       0.32114    0.26446    0.43392   1.00
H2       0.20819    0.27193    0.49673   1.00
H2       0.26090    0.27866    0.44403   1.00
H2       0.23492    0.30605    0.47347   1.00
C6       0.36288    0.36513    0.44887   1.00
C6       0.14107    0.20787    0.47182   1.00
H2       0.41136    0.37356    0.45500   1.00
H2       0.12260    0.15616    0.47747   1.00
C6       0.37856    0.40846    0.42903   1.00
C6       0.08312    0.22550    0.47507   1.00
H2       0.34320    0.38605    0.46021   1.00
H2       0.14812    0.20516    0.45552   1.00
C6       0.41683    0.38925    0.41320   1.00
C6       0.06219    0.21969    0.49771   1.00
C6       0.31265    0.40048    0.41932   1.00
C6       0.10433    0.29795    0.46725   1.00
C6       0.42543    0.48482    0.43451   1.00
C6       0.01929    0.17360    0.46294   1.00
H2       0.46309    0.39329    0.41970   1.00
H2       0.04798    0.16944    0.50378   1.00
H2       0.38512    0.33729    0.40773   1.00
H2       0.10356    0.25774    0.50697   1.00
H2       0.43169    0.42287    0.40003   1.00
H2       0.01866    0.22742    0.49963   1.00
H2       0.32452    0.43456    0.40635   1.00
H2       0.06195    0.30787    0.46825   1.00
H2       0.27985    0.34855    0.41391   1.00
H2       0.14620    0.33680    0.47621   1.00
H2       0.28399    0.41233    0.43028   1.00
H2       0.12068    0.30386    0.45145   1.00
H2       0.47314    0.49339    0.44125   1.00
H2       0.00174    0.12153    0.46803   1.00
H2       0.43821    0.51719    0.42109   1.00
H2       -0.02284   0.18355    0.46484   1.00
H2       0.40064    0.50185    0.44535   1.00
H2       0.03046    0.17622    0.44675   1.00
C4       0.81370    0.17216    0.48424   1.00
C4       0.83923    0.14168    0.49808   1.00
C3       0.83961    0.24387    0.48354   1.00
C3       0.89705    0.18112    0.51066   1.00
C3       0.76014    0.13010    0.47049   1.00
C3       0.80639    0.06904    0.49957   1.00
C2       0.76442    0.23419    0.45560   1.00
C2       0.88889    0.08016    0.52678   1.00
C3       0.81605    0.27409    0.46960   1.00
C3       0.92101    0.15143    0.52465   1.00
C3       0.73784    0.16291    0.45646   1.00
C3       0.83215    0.04083    0.51409   1.00
H1       0.87611    0.27678    0.49327   1.00
H1       0.92435    0.23289    0.50998   1.00
C5       0.73005    0.05735    0.47105   1.00
C5       0.74972    0.02662    0.48670   1.00
H1       0.83703    0.32613    0.46982   1.00
H1       0.96279    0.18271    0.53334   1.00
H1       0.70019    0.13477    0.44635   1.00
H1       0.80987    -0.01059   0.51570   1.00
C6       0.67861    0.01407    0.45502   1.00
C6       0.71098    -0.04982   0.48993   1.00
H2       0.69671    0.03790    0.44024   1.00
H2       0.70288    -0.06037   0.50613   1.00
H2       0.67684    -0.03440   0.45294   1.00
H2       0.65892    -0.07281   0.48438   1.00
C6       0.60481    0.00025    0.45957   1.00
C6       0.74643    -0.08691   0.47994   1.00
H2       0.60725    0.04745    0.46457   1.00
H2       0.80116    -0.05821   0.48306   1.00
C6       0.55102    -0.03059   0.44208   1.00
C6       0.71968    -0.16299   0.48601   1.00
H2       0.58528    -0.03408   0.47259   1.00
H2       0.74190    -0.08452   0.46351   1.00
C6       0.56950    0.02002    0.42414   1.00
C6       0.73425    -0.16972   0.50863   1.00
C6       0.54328    -0.09848   0.43412   1.00
C6       0.64227    -0.20814   0.48189   1.00
C6       0.48078    -0.04560   0.45048   1.00
C6       0.75762    -0.19085   0.47302   1.00
H2       0.57642    0.06891    0.42932   1.00
H2       0.78839    -0.13756   0.51212   1.00
H2       0.61640    0.02962    0.41670   1.00
H2       0.70573    -0.15491   0.51869   1.00
H2       0.52939    0.00001    0.41267   1.00
H2       0.71974    -0.22222   0.51235   1.00
H2       0.50229    -0.12200   0.42296   1.00
H2       0.62513    -0.26178   0.48479   1.00
H2       0.59000    -0.09005   0.42677   1.00
H2       0.61281    -0.19365   0.49168   1.00
H2       0.53166    -0.13455   0.44652   1.00
H2       0.63042    -0.20322   0.46616   1.00
H2       0.48326    0.00094    0.45612   1.00
H2       0.81259    -0.16112   0.47554   1.00
H2       0.44151    -0.06684   0.43876   1.00
H2       0.74097    -0.24384   0.47681   1.00
H2       0.46425    -0.08217   0.46294   1.00
H2       0.74819    -0.18874   0.45688   1.00
C4       0.63186    0.83054    0.01262   1.00
C4       0.68458    0.85760    -0.00234   1.00
C3       0.62218    0.87286    0.02664   1.00
C3       0.72660    0.92899    -0.00573   1.00
C3       0.58669    0.75851    0.01385   1.00
C3       0.69639    0.81229    -0.01453   1.00
C2       0.52319    0.77615    0.04223   1.00
C2       0.79340    0.91251    -0.03190   1.00
C3       0.56934    0.84665    0.04094   1.00
C3       0.77960    0.95574    -0.01997   1.00
C3       0.53329    0.73390    0.02856   1.00
C3       0.75112    0.84161    -0.02880   1.00
H1       0.65358    0.92426    0.02712   1.00
H1       0.71984    0.96421    0.00189   1.00
C5       0.59566    0.71311    0.00072   1.00
C5       0.65390    0.73987    -0.01241   1.00
H1       0.56493    0.87990    0.05056   1.00
H1       0.80825    1.00772    -0.02163   1.00
H1       0.49987    0.68306    0.02980   1.00
H1       0.76139    0.81107    -0.03765   1.00
C6       0.54324    0.63781    0.00071   1.00
C6       0.67149    0.69271    -0.02384   1.00
H2       0.49236    0.63171    0.00093   1.00
H2       0.72623    0.71239    -0.02279   1.00
H2       0.54273    0.61382    -0.01362   1.00
H2       0.65120    0.64359    -0.01635   1.00
C6       0.55338    0.59757    0.01843   1.00
C6       0.64653    0.68087    -0.04643   1.00
H2       0.56386    0.62659    0.03252   1.00
H2       0.65813    0.72949    -0.05326   1.00
C6       0.49416    0.52326    0.02267   1.00
C6       0.67464    0.64579    -0.06089   1.00
H2       0.59970    0.59555    0.01526   1.00
H2       0.59092    0.65020    -0.04631   1.00
C6       0.42915    0.52249    0.03048   1.00
C6       0.75242    0.69145    -0.06451   1.00
C6       0.47613    0.47772    0.00354   1.00
C6       0.65978    0.57570    -0.05257   1.00
C6       0.51767    0.49142    0.03945   1.00
C6       0.63866    0.63378    -0.08177   1.00
H2       0.44042    0.55509    0.04380   1.00
H2       0.76474    0.74177    -0.07008   1.00
H2       0.40739    0.54035    0.01893   1.00
H2       0.78128    0.69856    -0.05063   1.00
H2       0.38984    0.47105    0.03473   1.00
H2       0.77063    0.66871    -0.07569   1.00
H2       0.43828    0.42494    0.00702   1.00
H2       0.67518    0.54954    -0.06343   1.00
H2       0.45486    0.49520    -0.00829   1.00
H2       0.68773    0.58166    -0.03855   1.00
H2       0.52135    0.47852    -0.00252   1.00
H2       0.60550    0.54304    -0.04949   1.00
H2       0.53038    0.52132    0.05341   1.00
H2       0.64815    0.68190    -0.08844   1.00
H2       0.47776    0.43953    0.04306   1.00
H2       0.65697    0.60972    -0.09247   1.00
H2       0.56270    0.48927    0.03467   1.00
H2       0.58360    0.60068    -0.08029   1.00
C4       0.18537    0.35921    0.01549   1.00
C4       0.15926    0.30308    0.00169   1.00
C3       0.17038    0.41304    0.01360   1.00
C3       0.11076    0.29312    -0.01364   1.00
C3       0.22827    0.36254    0.03189   1.00
C3       0.18186    0.25448    0.00306   1.00
C2       0.23540    0.47104    0.04397   1.00
C2       0.10893    0.19144    -0.02687   1.00
C3       0.19429    0.46712    0.02743   1.00
C3       0.08654    0.23925    -0.02756   1.00
C3       0.25126    0.41828    0.04571   1.00
C3       0.15625    0.20055    -0.01148   1.00
H1       0.14209    0.41534    0.00197   1.00
H1       0.09068    0.32425    -0.01513   1.00
C5       0.24747    0.31136    0.03408   1.00
C5       0.22845    0.26020    0.01871   1.00
H1       0.18144    0.50421    0.02527   1.00
H1       0.05181    0.23505    -0.03830   1.00
H1       0.28147    0.42216    0.05764   1.00
H1       0.17148    0.16526    -0.01108   1.00
C6       0.28680    0.31153    0.05268   1.00
C6       0.25750    0.21277    0.01866   1.00
H2       0.26465    0.32122    0.06606   1.00
H2       0.27207    0.20831    0.00323   1.00
H2       0.27888    0.26102    0.05593   1.00
H2       0.30623    0.23507    0.02648   1.00
C6       0.36529    0.36303    0.05108   1.00
C6       0.20809    0.14117    0.02815   1.00
H2       0.37366    0.41149    0.04496   1.00
H2       0.15636    0.12267    0.02251   1.00
C6       0.40867    0.37873    0.07091   1.00
C6       0.22577    0.08326    0.02488   1.00
H2       0.38621    0.34337    0.03973   1.00
H2       0.20541    0.14823    0.04445   1.00
C6       0.38946    0.41698    0.08675   1.00
C6       0.21992    0.06234    0.00225   1.00
C6       0.40076    0.31285    0.08062   1.00
C6       0.29825    0.10452    0.03269   1.00
C6       0.48501    0.42565    0.06541   1.00
C6       0.17393    0.01942    0.03702   1.00
H2       0.39345    0.46322    0.08026   1.00
H2       0.16964    0.04809    -0.00382   1.00
H2       0.33752    0.38523    0.09224   1.00
H2       0.25793    0.10372    -0.00702   1.00
H2       0.42311    0.43186    0.09991   1.00
H2       0.22769    0.01883    0.00032   1.00
H2       0.43488    0.32475    0.09358   1.00
H2       0.30821    0.06217    0.03168   1.00
H2       0.34886    0.28002    0.08603   1.00
H2       0.33706    0.14641    0.02372   1.00
H2       0.41262    0.28421    0.06964   1.00
H2       0.30418    0.12087    0.04849   1.00
H2       0.49353    0.47335    0.05868   1.00
H2       0.12184    0.00183    0.03194   1.00
H2       0.51742    0.43846    0.07883   1.00
H2       0.18392    -0.02269   0.03511   1.00
H2       0.50204    0.40088    0.05457   1.00
H2       0.17658    0.03059    0.05321   1.00
C4       0.17216    0.81370    0.01576   1.00
C4       0.14168    0.83923    0.00192   1.00
C3       0.24387    0.83961    0.01646   1.00
C3       0.18112    0.89705    -0.01066   1.00
C3       0.13010    0.76014    0.02951   1.00
C3       0.06904    0.80639    0.00043   1.00
C2       0.23419    0.76442    0.04440   1.00
C2       0.08016    0.88889    -0.02678   1.00
C3       0.27409    0.81605    0.03040   1.00
C3       0.15143    0.92101    -0.02465   1.00
C3       0.16291    0.73784    0.04354   1.00
C3       0.04083    0.83215    -0.01409   1.00
H1       0.27678    0.87611    0.00673   1.00
H1       0.23289    0.92435    -0.00998   1.00
C5       0.05735    0.73005    0.02895   1.00
C5       0.02662    0.74972    0.01330   1.00
H1       0.32613    0.83703    0.03018   1.00
H1       0.18271    0.96279    -0.03334   1.00
H1       0.13477    0.70019    0.05365   1.00
H1       -0.01059   0.80987    -0.01570   1.00
C6       0.01407    0.67861    0.04498   1.00
C6       -0.04982   0.71098    0.01007   1.00
H2       0.03790    0.69671    0.05976   1.00
H2       -0.06037   0.70288    -0.00613   1.00
H2       -0.03440   0.67684    0.04706   1.00
H2       -0.07281   0.65892    0.01562   1.00
C6       0.00025    0.60481    0.04043   1.00
C6       -0.08691   0.74643    0.02006   1.00
H2       0.04745    0.60725    0.03543   1.00
H2       -0.05821   0.80116    0.01694   1.00
C6       -0.03059   0.55102    0.05792   1.00
C6       -0.16299   0.71968    0.01399   1.00
H2       -0.03408   0.58528    0.02741   1.00
H2       -0.08452   0.74190    0.03649   1.00
C6       0.02002    0.56950    0.07586   1.00
C6       -0.16972   0.73425    -0.00863   1.00
C6       -0.09848   0.54328    0.06588   1.00
C6       -0.20814   0.64227    0.01811   1.00
C6       -0.04560   0.48078    0.04952   1.00
C6       -0.19085   0.75762    0.02698   1.00
H2       0.06891    0.57642    0.07068   1.00
H2       -0.13756   0.78839    -0.01212   1.00
H2       0.02962    0.61640    0.08330   1.00
H2       -0.15491   0.70573    -0.01869   1.00
H2       0.00001    0.52939    0.08733   1.00
H2       -0.22222   0.71974    -0.01235   1.00
H2       -0.12200   0.50229    0.07704   1.00
H2       -0.26178   0.62513    0.01521   1.00
H2       -0.09005   0.59000    0.07323   1.00
H2       -0.19365   0.61281    0.00832   1.00
H2       -0.13455   0.53166    0.05348   1.00
H2       -0.20322   0.63042    0.03384   1.00
H2       0.00094    0.48326    0.04388   1.00
H2       -0.16112   0.81259    0.02446   1.00
H2       -0.06684   0.44151    0.06124   1.00
H2       -0.24384   0.74097    0.02319   1.00
H2       -0.08217   0.46425    0.03706   1.00
H2       -0.18874   0.74819    0.04312   1.00
C4       0.16934    0.35779    0.51601   1.00
C4       0.14225    0.30258    0.50187   1.00
C3       0.12713    0.37660    0.52704   1.00
C3       0.07083    0.25793    0.49934   1.00
C3       0.24129    0.39630    0.51943   1.00
C3       0.18755    0.29074    0.48969   1.00
C2       0.22374    0.46729    0.54535   1.00
C2       0.08733    0.19296    0.47257   1.00
C3       0.15333    0.42942    0.54134   1.00
C3       0.04408    0.20498    0.48508   1.00
C3       0.26589    0.44947    0.53421   1.00
C3       0.15824    0.23650    0.47526   1.00
H1       0.07582    0.35305    0.52495   1.00
H1       0.03557    0.26179    0.50791   1.00
C5       0.28662    0.38162    0.50817   1.00
C5       0.25996    0.33219    0.49215   1.00
H1       0.12016    0.44030    0.54885   1.00
H1       -0.00792   0.17474    0.48394   1.00
H1       0.31668    0.47768    0.53716   1.00
H1       0.18879    0.22678    0.46623   1.00
C6       0.36173    0.41784    0.51346   1.00
C6       0.30723    0.32380    0.47770   1.00
H2       0.36724    0.41922    0.52991   1.00
H2       0.28816    0.31933    0.46228   1.00
H2       0.38536    0.38822    0.50901   1.00
H2       0.35666    0.37003    0.47670   1.00
C6       0.40296    0.49086    0.50393   1.00
C6       0.31805    0.26262    0.48335   1.00
H2       0.37439    0.51766    0.50580   1.00
H2       0.26903    0.21817    0.48728   1.00
C6       0.47713    0.53869    0.51190   1.00
C6       0.35318    0.23964    0.46720   1.00
H2       0.40545    0.48479    0.48757   1.00
H2       0.34821    0.27611    0.49727   1.00
C6       0.47737    0.55889    0.53440   1.00
C6       0.30809    0.20924    0.44806   1.00
C6       0.52205    0.50527    0.50964   1.00
C6       0.42382    0.29934    0.46083   1.00
C6       0.51004    0.60528    0.49916   1.00
C6       0.36410    0.18302    0.47667   1.00
H2       0.44517    0.58164    0.53657   1.00
H2       0.25743    0.16765    0.45208   1.00
H2       0.45872    0.51489    0.54441   1.00
H2       0.30179    0.24757    0.43992   1.00
H2       0.52878    0.59591    0.53940   1.00
H2       0.33081    0.18908    0.43752   1.00
H2       0.57481    0.54082    0.51388   1.00
H2       0.44995    0.28173    0.45069   1.00
H2       0.50379    0.46066    0.51940   1.00
H2       0.41865    0.33862    0.45282   1.00
H2       0.52161    0.48927    0.49400   1.00
H2       0.45610    0.32258    0.47408   1.00
H2       0.48061    0.63133    0.50040   1.00
H2       0.31556    0.13924    0.48125   1.00
H2       0.56188    0.64062    0.50426   1.00
H2       0.38815    0.16494    0.46590   1.00
H2       0.51261    0.59450    0.48315   1.00
H2       0.39676    0.20181    0.49005   1.00
C4       0.64134    0.81401    0.51569   1.00
C4       0.69580    0.84200    0.50129   1.00
C3       0.63886    0.77165    0.53203   1.00
C3       0.75495    0.83556    0.50343   1.00
C3       0.58679    0.82832    0.51389   1.00
C3       0.69187    0.87805    0.48401   1.00
C2       0.53296    0.76013    0.54539   1.00
C2       0.80444    0.89567    0.47167   1.00
C3       0.58657    0.74575    0.54650   1.00
C3       0.80751    0.86123    0.48905   1.00
C3       0.53469    0.80126    0.52901   1.00
C3       0.74632    0.90309    0.46965   1.00
H1       0.67460    0.75747    0.53392   1.00
H1       0.76237    0.81257    0.51563   1.00
C5       0.58500    0.86828    0.49727   1.00
C5       0.63495    0.88865    0.48147   1.00
H1       0.58786    0.71573    0.55797   1.00
H1       0.84869    0.85467    0.49144   1.00
H1       0.49531    0.81070    0.52833   1.00
H1       0.74515    0.92857    0.45710   1.00
C6       0.53101    0.88906    0.49675   1.00
C6       0.62791    0.92043    0.46207   1.00
H2       0.52612    0.90584    0.51184   1.00
H2       0.63957    0.89782    0.44920   1.00
H2       0.54736    0.93512    0.48788   1.00
H2       0.57512    0.90575    0.45906   1.00
C6       0.46064    0.83164    0.48845   1.00
C6       0.67233    1.00019    0.46191   1.00
H2       0.44845    0.78275    0.49522   1.00
H2       0.72321    1.01577    0.46777   1.00
C6       0.39740    0.84134    0.49140   1.00
C6       0.68106    1.03743    0.44118   1.00
H2       0.46663    0.82599    0.47225   1.00
H2       0.65005    1.01988    0.47280   1.00
C6       0.37854    0.83890    0.51413   1.00
C6       0.72228    1.02061    0.42575   1.00
C6       0.40955    0.90926    0.48202   1.00
C6       0.61128    1.01914    0.43175   1.00
C6       0.33525    0.78202    0.48050   1.00
C6       0.72134    1.11558    0.44495   1.00
H2       0.37072    0.79201    0.52128   1.00
H2       0.77142    1.03192    0.43208   1.00
H2       0.41840    0.88178    0.52249   1.00
H2       0.69486    0.96702    0.42144   1.00
H2       0.33170    0.84095    0.51594   1.00
H2       0.73216    1.05040    0.41188   1.00
H2       0.36353    0.91326    0.48286   1.00
H2       0.61796    1.04902    0.41807   1.00
H2       0.44980    0.95288    0.49007   1.00
H2       0.58271    0.96546    0.42751   1.00
H2       0.42431    0.91291    0.46612   1.00
H2       0.58064    1.02917    0.44247   1.00
H2       0.32402    0.73277    0.48671   1.00
H2       0.77146    1.13135    0.45142   1.00
H2       0.28959    0.78630    0.48224   1.00
H2       0.72916    1.14389    0.43086   1.00
H2       0.34491    0.78185    0.46428   1.00
H2       0.69411    1.13088    0.45543   1.00
C4       0.18608    0.82749    0.51571   1.00
C4       0.15808    0.85398    0.50133   1.00
C3       0.22953    0.86774    0.53182   1.00
C3       0.16565    0.92009    0.50328   1.00
C3       0.17067    0.75823    0.51414   1.00
C3       0.12084    0.81349    0.48426   1.00
C2       0.24004    0.77302    0.54540   1.00
C2       0.10435    0.90894    0.47172   1.00
C3       0.25547    0.84136    0.54629   1.00
C3       0.13995    0.94698    0.48890   1.00
C3       0.19781    0.73322    0.52924   1.00
C3       0.09581    0.84290    0.46990   1.00
H1       0.24451    0.91792    0.53353   1.00
H1       0.18954    0.95093    0.51533   1.00
C5       0.12956    0.71604    0.49775   1.00
C5       0.10909    0.74547    0.48193   1.00
H1       0.28631    0.87296    0.55759   1.00
H1       0.14736    0.99510    0.49114   1.00
H1       0.18761    0.68413    0.52872   1.00
H1       0.06949    0.81587    0.45750   1.00
C6       0.10769    0.64099    0.49749   1.00
C6       0.07600    0.70597    0.46273   1.00
H2       0.09142    0.62010    0.51268   1.00
H2       0.09837    0.73956    0.44970   1.00
H2       0.06110    0.61140    0.48883   1.00
H2       0.08978    0.66718    0.45978   1.00
C6       0.16400    0.62658    0.48906   1.00
C6       -0.00368   0.67166    0.46289   1.00
H2       0.21341    0.66308    0.49558   1.00
H2       -0.01825   0.70779    0.46870   1.00
C6       0.15332    0.55334    0.49222   1.00
C6       -0.04208   0.64259    0.44235   1.00
H2       0.16902    0.63749    0.47281   1.00
H2       -0.02337   0.63019    0.47395   1.00
C6       0.15656    0.53780    0.51498   1.00
C6       -0.02518   0.70012    0.42672   1.00
C6       0.08460    0.49783    0.48319   1.00
C6       -0.02525   0.58994    0.43301   1.00
C6       0.21157    0.54901    0.48116   1.00
C6       -0.12001   0.60590    0.44645   1.00
H2       0.20405    0.57673    0.52190   1.00
H2       -0.03546   0.73874    0.43298   1.00
H2       0.11440    0.53586    0.52348   1.00
H2       0.02818    0.72541    0.42218   1.00
H2       0.15381    0.48863    0.51693   1.00
H2       -0.05572   0.67990    0.41299   1.00
H2       0.07985    0.44751    0.48418   1.00
H2       -0.05592   0.56642    0.41948   1.00
H2       0.04168    0.49553    0.49138   1.00
H2       0.02819    0.61417    0.42854   1.00
H2       0.08040    0.50836    0.46728   1.00
H2       -0.03535   0.54961    0.44386   1.00
H2       0.26133    0.58679    0.48713   1.00
H2       -0.13476   0.64110    0.45287   1.00
H2       0.20658    0.49881    0.48305   1.00
H2       -0.14910   0.58506    0.43249   1.00
H2       0.21111    0.55817    0.46492   1.00
H2       -0.13537   0.56376    0.45708   1.00
C4       0.36801    0.16913    0.98733   1.00
C4       0.31378    0.13808    1.00174   1.00
C3       0.42028    0.23879    0.98872   1.00
C3       0.31191    0.17229    1.01966   1.00
C3       0.37085    0.12981    0.97078   1.00
C3       0.25893    0.07022    0.99837   1.00
C2       0.47956    0.23108    0.95876   1.00
C2       0.20246    0.07661    1.03040   1.00
C3       0.47458    0.26884    0.97496   1.00
C3       0.25785    0.14274    1.03352   1.00
C3       0.42721    0.16224    0.95715   1.00
C3       0.20466    0.04210    1.01279   1.00
H1       0.42048    0.27049    0.99968   1.00
H1       0.35010    0.21971    1.02342   1.00
C5       0.31815    0.06025    0.96809   1.00
C5       0.25940    0.03217    0.98104   1.00
H1       0.51080    0.31924    0.97684   1.00
H1       0.25941    0.17018    1.04612   1.00
H1       0.43125    0.13582    0.94527   1.00
H1       0.16454    -0.00583   1.01085   1.00
C6       0.32556    0.01721    0.95182   1.00
C6       0.19771    -0.03666   0.97651   1.00
H2       0.37760    0.02635    0.95202   1.00
H2       0.15169    -0.03340   0.97862   1.00
H2       0.29640    -0.03682   0.95541   1.00
H2       0.19447    -0.04940   0.96050   1.00
C6       0.30462    0.02905    0.93019   1.00
C6       0.19557    -0.09607   0.98929   1.00
H2       0.32595    0.08368    0.92761   1.00
H2       0.20865    -0.07978   1.00506   1.00
C6       0.32426    -0.00074   0.91162   1.00
C6       0.12745    -0.16619   0.98928   1.00
H2       0.24936    0.00755    0.93013   1.00
H2       0.23634    -0.10442   0.98381   1.00
C6       0.40264    0.03521    0.90865   1.00
C6       0.06896    -0.16114   0.99988   1.00
C6       0.29538    -0.07854   0.91378   1.00
C6       0.10507    -0.19401   0.96748   1.00
C6       0.29332    0.01158    0.89215   1.00
C6       0.13895    -0.21857   1.00130   1.00
H2       0.42476    0.09039    0.90741   1.00
H2       0.08360    -0.14058   1.01520   1.00
H2       0.42737    0.02513    0.92127   1.00
H2       0.05530    -0.12826   0.99150   1.00
H2       0.41564    0.01744    0.89488   1.00
H2       0.02308    -0.21113   1.00105   1.00
H2       0.30514    -0.09962   0.90014   1.00
H2       0.06032    -0.24504   0.96772   1.00
H2       0.31904    -0.08976   0.92648   1.00
H2       0.09180    -0.16139   0.95877   1.00
H2       0.24042    -0.10494   0.91632   1.00
H2       0.14590    -0.19673   0.95954   1.00
H2       0.31266    0.06595    0.88980   1.00
H2       0.15418    -0.20167   1.01691   1.00
H2       0.30605    -0.00799   0.87872   1.00
H2       0.09255    -0.26838   1.00184   1.00
H2       0.23783    -0.01376   0.89315   1.00
H2       0.17880    -0.22544   0.99432   1.00
C4       0.81477    0.64062    0.98457   1.00
C4       0.84253    0.69471    0.99909   1.00
C3       0.78331    0.64431    0.96626   1.00
C3       0.84724    0.75891    0.99537   1.00
C3       0.81805    0.58009    0.98826   1.00
C3       0.86686    0.68517    1.01813   1.00
C2       0.76160    0.53267    0.95473   1.00
C2       0.89558    0.80296    1.02883   1.00
C3       0.75781    0.59221    0.95173   1.00
C3       0.87261    0.81134    1.00980   1.00
C3       0.79182    0.52836    0.97302   1.00
C3       0.89198    0.73971    1.03245   1.00
H1       0.77714    0.68471    0.96290   1.00
H1       0.83303    0.77024    0.98195   1.00
C5       0.84653    0.57221    1.00680   1.00
C5       0.86610    0.62269    1.02241   1.00
H1       0.73597    0.59809    0.93880   1.00
H1       0.87441    0.85635    1.00621   1.00
H1       0.79365    0.48479    0.97503   1.00
H1       0.90930    0.73468    1.04621   1.00
C6       0.85629    0.51124    1.00955   1.00
C6       0.88516    0.61053    1.04339   1.00
H2       0.87717    0.50312    0.99562   1.00
H2       0.86108    0.62677    1.05468   1.00
H2       0.89656    0.52167    1.02037   1.00
H2       0.86208    0.55645    1.04672   1.00
C6       0.78958    0.44515    1.01627   1.00
C6       0.96412    0.64553    1.04675   1.00
H2       0.74651    0.43966    1.00731   1.00
H2       0.98892    0.69738    1.04068   1.00
C6       0.78936    0.37597    1.01522   1.00
C6       0.99007    0.64939    1.06899   1.00
H2       0.77841    0.45273    1.03187   1.00
H2       0.98297    0.61843    1.03749   1.00
C6       0.79399    0.35580    0.99304   1.00
C6       0.97488    0.69637    1.08248   1.00
C6       0.84843    0.37849    1.02777   1.00
C6       0.95821    0.57783    1.07885   1.00
C6       0.72113    0.31902    1.02424   1.00
C6       1.06862    0.68015    1.06847   1.00
H2       0.75359    0.35465    0.98370   1.00
H2       0.99577    0.74703    1.07576   1.00
H2       0.84270    0.39154    0.98615   1.00
H2       0.92030    0.67553    1.08454   1.00
H2       0.78904    0.30536    0.99236   1.00
H2       0.99728    0.70251    1.09753   1.00
H2       0.84495    0.32865    1.02813   1.00
H2       0.98026    0.58053    1.09378   1.00
H2       0.89774    0.41454    1.02122   1.00
H2       0.90338    0.55577    1.08086   1.00
H2       0.84720    0.39398    1.04336   1.00
H2       0.96694    0.54331    1.06943   1.00
H2       0.67766    0.31461    1.01578   1.00
H2       1.09374    0.73115    1.06182   1.00
H2       0.71836    0.26950    1.02372   1.00
H2       1.08926    0.68432    1.08370   1.00
H2       0.71550    0.32966    1.04005   1.00
H2       1.08254    0.64846    1.05949   1.00
C4       0.82751    0.18609    0.98429   1.00
C4       0.85401    0.15809    0.99867   1.00
C3       0.86780    0.22968    0.96820   1.00
C3       0.92018    0.16581    0.99674   1.00
C3       0.75820    0.17054    0.98583   1.00
C3       0.81345    0.12070    1.01571   1.00
C2       0.77304    0.24006    0.95460   1.00
C2       0.90896    0.10435    1.02827   1.00
C3       0.84143    0.25563    0.95374   1.00
C3       0.94707    0.14011    1.01112   1.00
C3       0.73320    0.19769    0.97073   1.00
C3       0.84286    0.09567    1.03007   1.00
H1       0.91802    0.24477    0.96652   1.00
H1       0.95108    0.18981    0.98471   1.00
C5       0.71596    0.12928    1.00219   1.00
C5       0.74537    0.10880    1.01801   1.00
H1       0.87306    0.28657    0.94246   1.00
H1       0.99524    0.14762    1.00890   1.00
H1       0.68407    0.18739    0.97123   1.00
H1       0.81578    0.06924    1.04245   1.00
C6       0.64087    0.10728    1.00241   1.00
C6       0.70578    0.07554    1.03718   1.00
H2       0.62009    0.09107    0.98721   1.00
H2       0.73928    0.09787    1.05023   1.00
H2       0.61130    0.06062    1.01105   1.00
H2       0.66690    0.08921    1.04012   1.00
C6       0.62628    0.16344    1.01086   1.00
C6       0.67161    -0.00413   1.03698   1.00
H2       0.66274    0.21292    1.00437   1.00
H2       0.70785    -0.01857   1.03118   1.00
C6       0.55300    0.15263    1.00767   1.00
C6       0.64247    -0.04267   1.05750   1.00
H2       0.63708    0.16838    1.02712   1.00
H2       0.63020    -0.02381   1.02590   1.00
C6       0.53757    0.15598    0.98490   1.00
C6       0.69993    -0.02577   1.07315   1.00
C6       0.49752    0.08382    1.01665   1.00
C6       0.58967    -0.02603   1.06683   1.00
C6       0.54847    0.21074    1.01876   1.00
C6       0.60593    -0.12057   1.05336   1.00
H2       0.57648    0.20354    0.97802   1.00
H2       0.73865    -0.03591   1.06690   1.00
H2       0.53577    0.11391    0.97639   1.00
H2       0.72511    0.02757    1.07772   1.00
H2       0.48837    0.15314    0.98294   1.00
H2       0.67967    -0.05640   1.08687   1.00
H2       0.44716    0.07897    1.01565   1.00
H2       0.56611    -0.05680   1.08034   1.00
H2       0.49536    0.04099    1.00845   1.00
H2       0.61378    0.02737    1.07132   1.00
H2       0.50797    0.07954    1.03257   1.00
H2       0.54938    -0.03614   1.05595   1.00
H2       0.58622    0.26056    1.01282   1.00
H2       0.64123    -0.13519   1.04694   1.00
H2       0.49824    0.20566    1.01685   1.00
H2       0.58505    -0.14976   1.06729   1.00
H2       0.55754    0.21021    1.03500   1.00
H2       0.56384    -0.13594   1.04270   1.00
C4       0.49335    0.97438    0.81775   1.00
C4       0.52353    1.03049    0.83156   1.00
C3       0.42329    0.92297    0.81886   1.00
C3       0.48438    1.04303    0.84604   1.00
C3       0.53403    0.96858    0.80215   1.00
C3       0.59552    1.07640    0.83105   1.00
C2       0.43145    0.86271    0.78922   1.00
C2       0.58492    1.14199    0.86015   1.00
C3       0.39309    0.86899    0.80499   1.00
C3       0.51406    1.09683    0.85999   1.00
C3       0.50124    0.91304    0.78826   1.00
C3       0.62380    1.13034    0.84559   1.00
H1       0.39173    0.92245    0.82992   1.00
H1       0.43275    1.01394    0.84688   1.00
C5       0.60549    1.01718    0.80078   1.00
C5       0.63721    1.06808    0.81625   1.00
H1       0.34225    0.83372    0.80657   1.00
H1       0.48305    1.10296    0.87011   1.00
H1       0.52836    0.90745    0.77688   1.00
H1       0.67483    1.16375    0.84580   1.00
C6       0.64629    1.01462    0.78295   1.00
C6       0.71403    1.11251    0.81727   1.00
H2       0.61692    1.00631    0.76909   1.00
H2       0.73036    1.11618    0.83300   1.00
H2       0.69094    1.06407    0.78001   1.00
H2       0.73958    1.08805    0.81017   1.00
C6       0.66929    0.96026    0.78554   1.00
C6       0.74104    1.18468    0.80754   1.00
H2       0.62675    0.91280    0.79136   1.00
H2       0.70901    1.20559    0.81237   1.00
C6       0.69827    0.94238    0.76640   1.00
C6       0.81710    1.23995    0.81166   1.00
H2       0.70801    0.97830    0.79744   1.00
H2       0.73370    1.17781    0.79115   1.00
C6       0.64282    0.90615    0.74988   1.00
C6       0.82944    1.26083    0.83435   1.00
C6       0.75969    1.00668    0.75717   1.00
C6       0.86674    1.21518    0.80502   1.00
C6       0.72329    0.89262    0.77289   1.00
C6       0.83420    1.30470    0.79916   1.00
H2       0.59825    0.86110    0.75601   1.00
H2       0.79439    1.27753    0.83959   1.00
H2       0.62588    0.93981    0.74372   1.00
H2       0.82241    1.21863    0.84393   1.00
H2       0.66219    0.88968    0.73722   1.00
H2       0.88131    1.30266    0.83682   1.00
H2       0.78253    0.99309    0.74475   1.00
H2       0.91970    1.25575    0.80660   1.00
H2       0.74388    1.04140    0.75109   1.00
H2       0.86002    1.17244    0.81432   1.00
H2       0.79889    1.03394    0.76861   1.00
H2       0.85813    1.19880    0.78921   1.00
H2       0.68158    0.84590    0.77933   1.00
H2       0.80098    1.32474    0.80342   1.00
H2       0.74362    0.87823    0.75998   1.00
H2       0.88680    1.34505    0.80164   1.00
H2       0.76356    0.91583    0.78426   1.00
H2       0.82779    1.29354    0.78294   1.00
C4       0.02513    0.51963    0.81757   1.00
C4       -0.03088   0.49409    0.83141   1.00
C3       0.07095    0.49374    0.81688   1.00
C3       -0.04925   0.43629    0.84399   1.00
C3       0.03661    0.57316    0.80381   1.00
C3       -0.07069   0.52692    0.83289   1.00
C2       0.13644    0.56891    0.78893   1.00
C2       -0.14206   0.44443    0.86011   1.00
C3       0.12472    0.51730    0.80294   1.00
C3       -0.10289   0.41233    0.85799   1.00
C3       0.09172    0.59547    0.78978   1.00
C3       -0.12467   0.50116    0.84742   1.00
H1       0.06737    0.45726    0.82661   1.00
H1       -0.02475   0.40901    0.84332   1.00
C5       -0.00607   0.60324    0.80437   1.00
C5       -0.05646   0.58357    0.82002   1.00
H1       0.15580    0.49633    0.80316   1.00
H1       -0.11339   0.37056    0.86668   1.00
H1       0.10122    0.63311    0.77967   1.00
H1       -0.15382   0.52342    0.84902   1.00
C6       0.00209    0.65466    0.78834   1.00
C6       -0.09419   0.62229    0.82325   1.00
H2       0.00782    0.63655    0.77356   1.00
H2       -0.09664   0.63041    0.83944   1.00
H2       -0.04463   0.65641    0.78625   1.00
H2       -0.06512   0.67435    0.81769   1.00
C6       0.06205    0.72847    0.79288   1.00
C6       -0.16672   0.58682    0.81326   1.00
H2       0.10681    0.72605    0.79788   1.00
H2       -0.19274   0.53209    0.81637   1.00
C6       0.08498    0.78225    0.77538   1.00
C6       -0.21607   0.61355    0.81932   1.00
H2       0.04724    0.74801    0.80590   1.00
H2       -0.15980   0.59133    0.79682   1.00
C6       0.11713    0.76376    0.75745   1.00
C6       -0.23737   0.59900    0.84194   1.00
C6       0.02482    0.78996    0.76742   1.00
C6       -0.18382   0.69096    0.81519   1.00
C6       0.14020    0.85249    0.78378   1.00
C6       -0.28187   0.57559    0.80633   1.00
H2       0.15910    0.75686    0.76263   1.00
H2       -0.25933   0.54487    0.84543   1.00
H2       0.07983    0.71685    0.75001   1.00
H2       -0.19405   0.62754    0.85200   1.00
H2       0.13721    0.80386    0.74598   1.00
H2       -0.27537   0.61350    0.84566   1.00
H2       0.04228    0.83094    0.75626   1.00
H2       -0.22034   0.70808    0.81809   1.00
H2       -0.01346   0.74322    0.76008   1.00
H2       -0.13988   0.72044    0.82498   1.00
H2       0.00036    0.80157    0.77982   1.00
H2       -0.16706   0.70279    0.79946   1.00
H2       0.18426    0.85004    0.78942   1.00
H2       -0.30709   0.52061    0.80885   1.00
H2       0.15821    0.89176    0.77205   1.00
H2       -0.31822   0.59223    0.81012   1.00
H2       0.12014    0.86903    0.79624   1.00
H2       -0.27033   0.58500    0.79019   1.00
C4       0.48039    0.50552    0.81757   1.00
C4       0.50593    0.47504    0.83141   1.00
C3       0.50615    0.57720    0.81692   1.00
C3       0.56362    0.51449    0.84403   1.00
C3       0.42698    0.46347    0.80378   1.00
C3       0.47322    0.40240    0.83286   1.00
C2       0.43110    0.56754    0.78893   1.00
C2       0.55560    0.41352    0.86011   1.00
C3       0.48258    0.60742    0.80298   1.00
C3       0.58759    0.48480    0.85802   1.00
C3       0.40467    0.49629    0.78975   1.00
C3       0.49898    0.37419    0.84738   1.00
H1       0.54253    0.61009    0.82668   1.00
H1       0.59082    0.56627    0.84339   1.00
C5       0.39704    0.39073    0.80430   1.00
C5       0.41669    0.35998    0.81994   1.00
H1       0.50345    0.65945    0.80323   1.00
H1       0.62928    0.51608    0.86675   1.00
H1       0.36712    0.46815    0.77962   1.00
H1       0.47680    0.32277    0.84895   1.00
C6       0.34576    0.34750    0.78823   1.00
C6       0.37808    0.28352    0.82313   1.00
H2       0.36393    0.37145    0.77347   1.00
H2       0.36987    0.27284    0.83932   1.00
H2       0.34413    0.29910    0.78612   1.00
H2       0.32605    0.26046    0.81754   1.00
C6       0.27187    0.33346    0.79273   1.00
C6       0.41375    0.24665    0.81314   1.00
H2       0.27415    0.38057    0.79776   1.00
H2       0.46845    0.27543    0.81629   1.00
C6       0.21821    0.30265    0.77520   1.00
C6       0.38712    0.17055    0.81916   1.00
H2       0.25230    0.29903    0.80574   1.00
H2       0.40933    0.24914    0.79670   1.00
C6       0.23672    0.35338    0.75730   1.00
C6       0.40155    0.16370    0.84179   1.00
C6       0.21071    0.23489    0.76721   1.00
C6       0.30975    0.12529    0.81498   1.00
C6       0.14787    0.28742    0.78357   1.00
C6       0.42527    0.14292    0.80618   1.00
H2       0.24348    0.40218    0.76250   1.00
H2       0.45565    0.19594    0.84531   1.00
H2       0.28372    0.36314    0.74988   1.00
H2       0.37288    0.17834    0.85184   1.00
H2       0.19670    0.33337    0.74580   1.00
H2       0.38713    0.11121    0.84548   1.00
H2       0.16981    0.21137    0.75603   1.00
H2       0.29271    0.07165    0.81786   1.00
H2       0.25752    0.24349    0.75989   1.00
H2       0.28014    0.13961    0.82477   1.00
H2       0.19908    0.19875    0.77959   1.00
H2       0.29800    0.13029    0.79925   1.00
H2       0.15018    0.33385    0.78923   1.00
H2       0.48023    0.17274    0.80873   1.00
H2       0.10868    0.26618    0.77182   1.00
H2       0.40871    0.08993    0.80994   1.00
H2       0.13132    0.25075    0.79601   1.00
H2       0.41595    0.14512    0.79003   1.00
C4       0.29802    0.15803    0.34571   1.00
C4       0.35176    0.18432    0.33107   1.00
C3       0.25608    0.18755    0.34899   1.00
C3       0.36269    0.23724    0.31726   1.00
C3       0.28506    0.10010    0.35768   1.00
C3       0.39671    0.15717    0.32997   1.00
C2       0.18718    0.10290    0.37460   1.00
C2       0.46245    0.23983    0.30214   1.00
C3       0.20211    0.16072    0.36291   1.00
C3       0.41651    0.26447    0.30329   1.00
C3       0.22937    0.07411    0.37161   1.00
C3       0.45112    0.18658    0.31560   1.00
H1       0.26360    0.23007    0.34153   1.00
H1       0.33155    0.25753    0.31669   1.00
C5       0.32737    0.06993    0.35566   1.00
C5       0.38652    0.10192    0.34290   1.00
H1       0.17358    0.18420    0.36451   1.00
H1       0.42180    0.30278    0.29379   1.00
H1       0.21826    0.03271    0.38029   1.00
H1       0.48441    0.16896    0.31446   1.00
C6       0.30866    0.00442    0.36682   1.00
C6       0.43863    0.07863    0.34309   1.00
H2       0.25396    -0.03033   0.36542   1.00
H2       0.48963    0.12323    0.34324   1.00
H2       0.32922    -0.02418   0.35934   1.00
H2       0.43800    0.05422    0.35735   1.00
C6       0.33205    0.01608    0.38956   1.00
C6       0.42944    0.02921    0.32518   1.00
H2       0.32023    0.05288    0.39645   1.00
H2       0.42008    0.04870    0.31110   1.00
C6       0.30264    -0.04797   0.40370   1.00
C6       0.48867    0.01396    0.32116   1.00
H2       0.38763    0.04076    0.38977   1.00
H2       0.38276    -0.01916   0.32799   1.00
C6       0.22467    -0.07991   0.40686   1.00
C6       0.55440    0.07844    0.31385   1.00
C6       0.31769    -0.10298   0.39529   1.00
C6       0.50515    -0.01488   0.34029   1.00
C6       0.33721    -0.02540   0.42482   1.00
C6       0.46606    -0.04042   0.30412   1.00
H2       0.21224    -0.04205   0.41249   1.00
H2       0.54422    0.10070    0.30054   1.00
H2       0.19673    -0.10073   0.39279   1.00
H2       0.57553    0.11736    0.32561   1.00
H2       0.20549    -0.12153   0.41783   1.00
H2       0.59380    0.06628    0.30975   1.00
H2       0.30133    -0.14521   0.40595   1.00
H2       0.54303    -0.02989   0.33694   1.00
H2       0.29068    -0.12401   0.38107   1.00
H2       0.52577    0.02315    0.35234   1.00
H2       0.37214    -0.08144   0.39252   1.00
H2       0.45938    -0.05951   0.34601   1.00
H2       0.32753    0.01302    0.43155   1.00
H2       0.45447    -0.02226   0.29016   1.00
H2       0.31796    -0.06840   0.43530   1.00
H2       0.50601    -0.05247   0.30066   1.00
H2       0.39232    -0.00363   0.42365   1.00
H2       0.42056    -0.08774   0.30855   1.00
C4       0.86600    0.70099    0.34612   1.00
C4       0.84073    0.64837    0.33114   1.00
C3       0.91097    0.70524    0.36190   1.00
C3       0.86416    0.60068    0.32960   1.00
C3       0.84599    0.75169    0.34556   1.00
C3       0.79015    0.64249    0.31701   1.00
C2       0.91980    0.80931    0.37585   1.00
C2       0.78724    0.53985    0.30148   1.00
C3       0.93738    0.75787    0.37626   1.00
C3       0.83807    0.54784    0.31530   1.00
C3       0.87434    0.80466    0.36040   1.00
C3       0.76464    0.58772    0.30275   1.00
H1       0.92569    0.66985    0.36367   1.00
H1       0.90154    0.60297    0.33867   1.00
C5       0.79861    0.74848    0.33056   1.00
C5       0.76666    0.69072    0.31726   1.00
H1       0.96981    0.75820    0.38721   1.00
H1       0.85691    0.51495    0.31503   1.00
H1       0.86170    0.84189    0.36041   1.00
H1       0.72832    0.58159    0.29255   1.00
C6       0.78355    0.80633    0.32880   1.00
C6       0.70805    0.67965    0.30369   1.00
H2       0.83120    0.85470    0.32991   1.00
H2       0.66857    0.62609    0.30428   1.00
H2       0.76643    0.80950    0.31364   1.00
H2       0.68120    0.70441    0.30968   1.00
C6       0.72970    0.80161    0.34462   1.00
C6       0.73058    0.70426    0.28134   1.00
H2       0.74111    0.78851    0.35951   1.00
H2       0.76587    0.68770    0.27617   1.00
C6       0.72133    0.86575    0.34728   1.00
C6       0.67315    0.68191    0.26499   1.00
H2       0.68025    0.75844    0.34037   1.00
H2       0.76036    0.75992    0.28150   1.00
C6       0.78629    0.92680    0.35645   1.00
C6       0.63519    0.60372    0.26144   1.00
C6       0.70411    0.88781    0.32691   1.00
C6       0.62081    0.70402    0.27088   1.00
C6       0.66156    0.84753    0.36220   1.00
C6       0.70653    0.71688    0.24457   1.00
H2       0.80046    0.91254    0.37070   1.00
H2       0.67089    0.58630    0.25757   1.00
H2       0.82951    0.94504    0.34615   1.00
H2       0.60698    0.57594    0.27486   1.00
H2       0.77830    0.96963    0.35955   1.00
H2       0.59855    0.58922    0.24905   1.00
H2       0.69359    0.92943    0.32917   1.00
H2       0.58384    0.69256    0.25873   1.00
H2       0.74655    0.90564    0.31630   1.00
H2       0.59247    0.67724    0.28442   1.00
H2       0.65936    0.84532    0.31992   1.00
H2       0.64639    0.75869    0.27388   1.00
H2       0.67151    0.83225    0.37694   1.00
H2       0.74352    0.70236    0.23960   1.00
H2       0.65399    0.89097    0.36466   1.00
H2       0.66842    0.70246    0.23260   1.00
H2       0.61386    0.80557    0.35637   1.00
H2       0.73303    0.77232    0.24599   1.00
C4       0.83542    0.13423    0.34606   1.00
C4       0.80818    0.15964    0.33108   1.00
C3       0.79394    0.08652    0.36119   1.00
C3       0.73682    0.13388    0.32886   1.00
C3       0.90678    0.15690    0.34615   1.00
C3       0.85327    0.21278    0.31766   1.00
C2       0.88988    0.08024    0.37574   1.00
C2       0.75320    0.21329    0.30146   1.00
C3       0.82016    0.06002    0.37553   1.00
C3       0.71006    0.16003    0.31458   1.00
C3       0.93139    0.12839    0.36094   1.00
C3       0.82399    0.23826    0.30340   1.00
H1       0.74324    0.06975    0.36249   1.00
H1       0.70155    0.09468    0.33740   1.00
C5       0.95156    0.20701    0.33182   1.00
C5       0.92540    0.23881    0.31860   1.00
H1       0.78752    0.02556    0.38600   1.00
H1       0.65813    0.13942    0.31380   1.00
H1       0.98172    0.14289    0.36140   1.00
H1       0.85442    0.27635    0.29369   1.00
C6       1.02553    0.22510    0.33070   1.00
C6       0.97297    0.29985    0.30581   1.00
H2       1.02824    0.17844    0.33145   1.00
H2       0.95679    0.33774    0.30660   1.00
H2       1.04730    0.24463    0.31583   1.00
H2       1.02375    0.32755    0.31237   1.00
C6       1.07141    0.27782    0.34726   1.00
C6       0.97877    0.28078    0.28333   1.00
H2       1.04511    0.26372    0.36188   1.00
H2       0.92802    0.24471    0.27753   1.00
C6       1.14473    0.28879    0.35049   1.00
C6       1.01399    0.34048    0.26767   1.00
H2       1.07614    0.32694    0.34343   1.00
H2       1.00647    0.25277    0.28345   1.00
C6       1.14250    0.22399    0.35914   1.00
C6       0.97168    0.37628    0.26412   1.00
C6       1.18651    0.30991    0.33055   1.00
C6       1.08698    0.39408    0.27448   1.00
C6       1.18272    0.34708    0.36615   1.00
C6       1.01954    0.31053    0.24704   1.00
H2       1.11241    0.20711    0.37307   1.00
H2       0.91950    0.33959    0.25962   1.00
H2       1.12015    0.18200    0.34835   1.00
H2       0.96926    0.40214    0.27775   1.00
H2       1.19365    0.23360    0.36266   1.00
H2       0.99415    0.41460    0.25218   1.00
H2       1.23899    0.32216    0.33326   1.00
H2       1.11283    0.43284    0.26280   1.00
H2       1.16453    0.26873    0.31946   1.00
H2       1.08569    0.42011    0.28823   1.00
H2       1.18767    0.35461    0.32392   1.00
H2       1.11743    0.36997    0.27749   1.00
H2       1.15564    0.33440    0.38062   1.00
H2       0.96919    0.27280    0.24143   1.00
H2       1.23416    0.35637    0.36902   1.00
H2       1.04346    0.35031    0.23553   1.00
H2       1.18717    0.39468    0.36072   1.00
H2       1.05007    0.28572    0.24846   1.00
C4       0.83258    0.69140    0.84930   1.00
C4       0.80440    0.63553    0.83539   1.00
C3       0.80071    0.73069    0.85348   1.00
C3       0.73904    0.61056    0.82633   1.00
C3       0.89504    0.70946    0.85954   1.00
C3       0.84228    0.60268    0.83018   1.00
C2       0.88774    0.80227    0.87818   1.00
C2       0.74879    0.52472    0.80649   1.00
C3       0.82716    0.78423    0.86754   1.00
C3       0.71212    0.55709    0.81224   1.00
C3       0.92008    0.76409    0.87383   1.00
C3       0.81322    0.54865    0.81568   1.00
H1       0.75743    0.72231    0.84631   1.00
H1       0.70823    0.62985    0.82978   1.00
C5       0.93095    0.67363    0.85532   1.00
C5       0.90712    0.62367    0.83945   1.00
H1       0.80160    0.81041    0.86994   1.00
H1       0.66480    0.54164    0.80619   1.00
H1       0.96409    0.77813    0.88151   1.00
H1       0.83881    0.52435    0.81149   1.00
C6       0.99298    0.68842    0.86782   1.00
C6       0.94982    0.59345    0.83221   1.00
H2       0.98238    0.69198    0.88375   1.00
H2       0.94881    0.59160    0.81569   1.00
H2       1.00157    0.64530    0.86798   1.00
H2       1.00375    0.62736    0.83518   1.00
C6       1.05975    0.75346    0.86056   1.00
C6       0.92759    0.52185    0.84170   1.00
H2       1.04894    0.79457    0.85751   1.00
H2       0.87200    0.49052    0.84142   1.00
C6       1.12335    0.78234    0.87488   1.00
C6       0.95753    0.47918    0.83207   1.00
H2       1.07397    0.74171    0.84590   1.00
H2       0.94132    0.52948    0.85776   1.00
C6       1.11113    0.81053    0.89492   1.00
C6       0.93136    0.45665    0.81010   1.00
C6       1.14325    0.72771    0.87989   1.00
C6       1.03652    0.51925    0.83202   1.00
C6       1.18467    0.84237    0.86391   1.00
C6       0.93371    0.41363    0.84492   1.00
H2       1.09589    0.84846    0.89190   1.00
H2       0.87570    0.42917    0.80957   1.00
H2       1.07132    0.77011    0.90403   1.00
H2       0.94982    0.50021    0.79992   1.00
H2       1.15725    0.83478    0.90417   1.00
H2       0.94868    0.42306    0.80403   1.00
H2       1.19040    0.74962    0.88867   1.00
H2       1.05687    0.48739    0.82663   1.00
H2       1.10368    0.68641    0.88885   1.00
H2       1.05603    0.56351    0.82206   1.00
H2       1.15075    0.70600    0.86602   1.00
H2       1.05626    0.53695    0.84725   1.00
H2       1.17353    0.88280    0.86021   1.00
H2       0.87813    0.38303    0.84527   1.00
H2       1.23033    0.86460    0.87339   1.00
H2       0.95300    0.38184    0.83870   1.00
H2       1.19673    0.82538    0.84981   1.00
H2       0.95181    0.42618    0.86053   1.00
C4       0.29952    0.13354    0.84630   1.00
C4       0.35420    0.15699    0.83204   1.00
C3       0.23985    0.13792    0.84256   1.00
C3       0.34999    0.17976    0.81222   1.00
C3       0.30385    0.10455    0.86513   1.00
C3       0.41577    0.15797    0.83753   1.00
C2       0.18746    0.08308    0.87471   1.00
C2       0.46597    0.20757    0.80353   1.00
C3       0.18532    0.11319    0.85626   1.00
C3       0.40422    0.20461    0.79842   1.00
C3       0.24705    0.07963    0.87862   1.00
C3       0.46994    0.18402    0.82306   1.00
H1       0.23406    0.15985    0.82983   1.00
H1       0.30712    0.17849    0.80701   1.00
C5       0.36385    0.10138    0.87012   1.00
C5       0.42196    0.13303    0.85695   1.00
H1       0.14360    0.11761    0.85262   1.00
H1       0.39807    0.22053    0.78439   1.00
H1       0.24802    0.05825    0.89208   1.00
H1       0.51468    0.18597    0.82646   1.00
C6       0.36480    0.06409    0.88907   1.00
C6       0.48981    0.14109    0.86337   1.00
H2       0.31662    0.01628    0.89025   1.00
H2       0.53036    0.19214    0.85938   1.00
H2       0.40106    0.04611    0.88781   1.00
H2       0.49461    0.14162    0.87978   1.00
C6       0.38066    0.10803    0.90882   1.00
C6       0.50320    0.08472    0.85441   1.00
H2       0.35132    0.13440    0.90876   1.00
H2       0.48893    0.07688    0.83838   1.00
C6       0.36814    0.07043    0.92966   1.00
C6       0.57716    0.09621    0.85623   1.00
H2       0.43404    0.14839    0.90816   1.00
H2       0.46818    0.03656    0.86184   1.00
C6       0.29132    0.01953    0.93327   1.00
C6       0.62877    0.15783    0.84332   1.00
C6       0.40855    0.03204    0.93129   1.00
C6       0.60171    0.10700    0.87856   1.00
C6       0.39291    0.12438    0.94689   1.00
C6       0.57704    0.03179    0.84810   1.00
H2       0.26121    0.04485    0.93189   1.00
H2       0.61231    0.15229    0.82752   1.00
H2       0.27148    -0.02228   0.92241   1.00
H2       0.63458    0.20559    0.84901   1.00
H2       0.28262    -0.00288   0.94840   1.00
H2       0.67914    0.16253    0.84357   1.00
H2       0.40337    0.01013    0.94638   1.00
H2       0.65124    0.11007    0.87983   1.00
H2       0.38989    -0.00965   0.92039   1.00
H2       0.60721    0.15429    0.88461   1.00
H2       0.46265    0.06646    0.92839   1.00
H2       0.56551    0.06498    0.88807   1.00
H2       0.36539    0.15254    0.94655   1.00
H2       0.56072    0.02226    0.83227   1.00
H2       0.38479    0.10050    0.96179   1.00
H2       0.62781    0.03755    0.84893   1.00
H2       0.44723    0.16107    0.94541   1.00
H2       0.54251    -0.01331   0.85688   1.00
C4       0.86595    0.16490    0.84611   1.00
C4       0.84267    0.19603    0.83175   1.00
C3       0.85337    0.09701    0.84374   1.00
C3       0.81159    0.16426    0.81303   1.00
C3       0.90322    0.20228    0.86360   1.00
C3       0.85046    0.26147    0.83602   1.00
C2       0.91586    0.10305    0.87461   1.00
C2       0.79256    0.25742    0.80316   1.00
C3       0.87780    0.06705    0.85748   1.00
C3       0.78695    0.19375    0.79919   1.00
C3       0.92753    0.17004    0.87717   1.00
C3       0.82434    0.28958    0.82157   1.00
H1       0.82540    0.06656    0.83205   1.00
H1       0.80630    0.11881    0.80865   1.00
C5       0.91500    0.26978    0.86725   1.00
C5       0.88392    0.29723    0.85422   1.00
H1       0.86723    0.01799    0.85487   1.00
H1       0.76480    0.16811    0.78599   1.00
H1       0.95462    0.19516    0.88971   1.00
H1       0.82851    0.33579    0.82413   1.00
C6       0.96062    0.31138    0.88461   1.00
C6       0.88532    0.36295    0.85957   1.00
H2       1.00563    0.30567    0.88489   1.00
H2       0.83510    0.35676    0.85677   1.00
H2       0.98308    0.36579    0.88194   1.00
H2       0.89093    0.37260    0.87580   1.00
C6       0.92321    0.29327    0.90563   1.00
C6       0.94273    0.42670    0.84822   1.00
H2       0.89229    0.23790    0.90717   1.00
H2       0.94384    0.41403    0.83227   1.00
C6       0.96828    0.32161    0.92513   1.00
C6       0.93967    0.49421    0.84900   1.00
H2       0.88676    0.31154    0.90547   1.00
H2       0.99173    0.43707    0.85444   1.00
C6       1.01413    0.28947    0.92827   1.00
C6       0.87658    0.48702    0.83753   1.00
C6       1.01355    0.40028    0.92446   1.00
C6       0.93880    0.51689    0.87112   1.00
C6       0.92053    0.30274    0.94384   1.00
C6       1.00426    0.55152    0.83842   1.00
H2       0.98377    0.23385    0.92848   1.00
H2       0.87510    0.46997    0.82194   1.00
H2       1.05191    0.30418    0.91626   1.00
H2       0.82921    0.45043    0.84492   1.00
H2       1.04178    0.30591    0.94261   1.00
H2       0.87741    0.53559    0.83695   1.00
H2       1.04107    0.41993    0.93871   1.00
H2       0.94159    0.56642    0.87151   1.00
H2       1.05134    0.41610    0.91238   1.00
H2       0.89201    0.48051    0.87885   1.00
H2       0.98264    0.42413    0.92183   1.00
H2       0.98194    0.52096    0.87965   1.00
H2       0.88785    0.24754    0.94514   1.00
H2       1.00697    0.53834    0.82265   1.00
H2       0.94971    0.32110    0.95788   1.00
H2       1.00424    0.59972    0.83847   1.00
H2       0.88774    0.32517    0.94271   1.00
H2       1.05058    0.55999    0.84609   1.00
C4       0.02487    0.50470    0.31748   1.00
C4       -0.02989   0.47803    0.33177   1.00
C3       0.03335    0.46261    0.30307   1.00
C3       -0.08387   0.40894    0.33128   1.00
C3       0.07356    0.57605    0.31739   1.00
C3       -0.03164   0.52140    0.34724   1.00
C2       0.13366    0.55907    0.28791   1.00
C2       -0.13889   0.42316    0.36127   1.00
C3       0.08583    0.48889    0.28866   1.00
C3       -0.13657   0.38213    0.34562   1.00
C3       0.12604    0.60084    0.30239   1.00
C3       -0.08600   0.49202    0.36162   1.00
H1       0.00210    0.41118    0.30264   1.00
H1       -0.08728   0.37567    0.32036   1.00
C5       0.06935    0.62054    0.33207   1.00
C5       0.01971    0.59212    0.34800   1.00
H1       0.08900    0.45588    0.27863   1.00
H1       -0.17384   0.33181    0.34448   1.00
H1       0.16133    0.65132    0.30175   1.00
H1       -0.08873   0.52111    0.37292   1.00
C6       0.11672    0.69681    0.33044   1.00
C6       0.02133    0.63560    0.36567   1.00
H2       0.11966    0.71212    0.31464   1.00
H2       0.01297    0.60701    0.37970   1.00
H2       0.09517    0.72504    0.33760   1.00
H2       0.07213    0.67885    0.36810   1.00
C6       0.18922    0.72117    0.33959   1.00
C6       -0.03033   0.66216    0.36335   1.00
H2       0.20719    0.68668    0.33475   1.00
H2       -0.07936   0.62073    0.35802   1.00
C6       0.24676    0.79580    0.33480   1.00
C6       -0.04411   0.69448    0.38248   1.00
H2       0.18377    0.71533    0.35604   1.00
H2       -0.01180   0.69995    0.35118   1.00
C6       0.26547    0.80547    0.31193   1.00
C6       -0.08077   0.64092    0.39946   1.00
C6       0.22624    0.84874    0.34139   1.00
C6       0.02268    0.75460    0.39103   1.00
C6       0.31177    0.81063    0.34680   1.00
C6       -0.09157   0.72253    0.37623   1.00
H2       0.27914    0.76807    0.30672   1.00
H2       -0.12761   0.59724    0.39381   1.00
H2       0.22319    0.79991    0.30266   1.00
H2       -0.04848   0.62206    0.40546   1.00
H2       0.30875    0.85615    0.30898   1.00
H2       -0.09437   0.66277    0.41214   1.00
H2       0.26846    0.90069    0.33933   1.00
H2       0.01204    0.77984    0.40344   1.00
H2       0.18349    0.84357    0.33241   1.00
H2       0.05605    0.73685    0.39694   1.00
H2       0.21144    0.84211    0.35734   1.00
H2       0.05023    0.79239    0.37926   1.00
H2       0.32888    0.77500    0.34254   1.00
H2       -0.13990   0.68187    0.37026   1.00
H2       0.35366    0.86214    0.34384   1.00
H2       -0.10307   0.74528    0.38914   1.00
H2       0.30219    0.80597    0.36310   1.00
H2       -0.06789   0.76166    0.36454   1.00
C4       0.48062    0.97472    0.31763   1.00
C4       0.50861    1.02921    0.33201   1.00
C3       0.43747    0.97172    0.30145   1.00
C3       0.50136    1.08792    0.33001   1.00
C3       0.49572    0.92067    0.31926   1.00
C3       0.54552    1.02576    0.34914   1.00
C2       0.42668    0.86631    0.28793   1.00
C2       0.56232    1.13787    0.36162   1.00
C3       0.41154    0.91941    0.28698   1.00
C3       0.52705    1.14049    0.34439   1.00
C3       0.46860    0.86854    0.30415   1.00
C3       0.57055    1.08020    0.36350   1.00
H1       0.42271    1.00707    0.29969   1.00
H1       0.47772    1.09500    0.31792   1.00
C5       0.53651    0.91940    0.33571   1.00
C5       0.55696    0.96931    0.35153   1.00
H1       0.38093    0.92032    0.27563   1.00
H1       0.51988    1.18134    0.34211   1.00
H1       0.47859    0.82951    0.30472   1.00
H1       0.59664    1.07936    0.37594   1.00
C6       0.55807    0.86598    0.33605   1.00
C6       0.58968    0.96273    0.37078   1.00
H2       0.57450    0.86130    0.32089   1.00
H2       0.56724    0.97406    0.38377   1.00
H2       0.60452    0.88281    0.34477   1.00
H2       0.57564    0.91009    0.37375   1.00
C6       0.50146    0.79536    0.34444   1.00
C6       0.66939    1.00783    0.37071   1.00
H2       0.45219    0.78265    0.33785   1.00
H2       0.68424    1.05858    0.36489   1.00
C6       0.51187    0.73262    0.34134   1.00
C6       0.70746    1.01699    0.39131   1.00
H2       0.49626    0.80128    0.36068   1.00
H2       0.68907    0.98591    0.35970   1.00
C6       0.50885    0.71381    0.31859   1.00
C6       0.69058    1.05778    0.40688   1.00
C6       0.58036    0.74552    0.35047   1.00
C6       0.69023    0.94743    0.40067   1.00
C6       0.45331    0.67015    0.35236   1.00
C6       0.78546    1.05796    0.38730   1.00
H2       0.46153    0.70546    0.31161   1.00
H2       0.70115    1.10675    0.40060   1.00
H2       0.55121    0.75393    0.31012   1.00
H2       0.63715    1.02989    0.41136   1.00
H2       0.51140    0.66727    0.31668   1.00
H2       0.72091    1.06798    0.42065   1.00
H2       0.58491    0.69983    0.34952   1.00
H2       0.72068    0.95444    0.41424   1.00
H2       0.62348    0.78604    0.34232   1.00
H2       0.63671    0.91839    0.40508   1.00
H2       0.58441    0.76026    0.36638   1.00
H2       0.70030    0.91707    0.38986   1.00
H2       0.40370    0.65838    0.34632   1.00
H2       0.80049    1.10796    0.38086   1.00
H2       0.45811    0.62481    0.35051   1.00
H2       0.81433    1.06609    0.40129   1.00
H2       0.45360    0.67978    0.36859   1.00
H2       0.80080    1.03106    0.37671   1.00
C4       0.49416    0.51941    0.31762   1.00
C4       0.52065    0.49141    0.33200   1.00
C3       0.53440    0.56284    0.30150   1.00
C3       0.58675    0.49896    0.33005   1.00
C3       0.42491    0.50402    0.31920   1.00
C3       0.48016    0.45419    0.34908   1.00
C2       0.43969    0.57337    0.28793   1.00
C2       0.57560    0.43768    0.36161   1.00
C3       0.50802    0.58878    0.28704   1.00
C3       0.61363    0.47326    0.34443   1.00
C3       0.39990    0.53116    0.30409   1.00
C3       0.50957    0.42916    0.36344   1.00
H1       0.58458    0.57781    0.29979   1.00
H1       0.61758    0.52283    0.31800   1.00
C5       0.38273    0.46293    0.33559   1.00
C5       0.41216    0.44246    0.35141   1.00
H1       0.53961    0.61960    0.27573   1.00
H1       0.66175    0.48065    0.34219   1.00
H1       0.35081    0.52097    0.30462   1.00
H1       0.48255    0.40286    0.37584   1.00
C6       0.30767    0.44108    0.33585   1.00
C6       0.37267    0.40939    0.37061   1.00
H2       0.28678    0.42480    0.32067   1.00
H2       0.40627    0.43177    0.38364   1.00
H2       0.27809    0.39451    0.34452   1.00
H2       0.33389    0.42320    0.37356   1.00
C6       0.29330    0.49742    0.34428   1.00
C6       0.33834    0.32971    0.37046   1.00
H2       0.32979    0.54682    0.33776   1.00
H2       0.37446    0.31512    0.36464   1.00
C6       0.22006    0.48675    0.34112   1.00
C6       0.30928    0.29134    0.39100   1.00
H2       0.30422    0.50245    0.36053   1.00
H2       0.29686    0.31003    0.35940   1.00
C6       0.20450    0.48998    0.31836   1.00
C6       0.36682    0.30823    0.40663   1.00
C6       0.16454    0.41805    0.35016   1.00
C6       0.25665    0.30819    0.40035   1.00
C6       0.21576    0.54502    0.35219   1.00
C6       0.27257    0.21340    0.38691   1.00
H2       0.24344    0.53745    0.31145   1.00
H2       0.40542    0.29794    0.40037   1.00
H2       0.20254    0.44780    0.30986   1.00
H2       0.39213    0.36160    0.41116   1.00
H2       0.15534    0.48724    0.31642   1.00
H2       0.34661    0.27771    0.42036   1.00
H2       0.11423    0.41331    0.34917   1.00
H2       0.23314    0.27754    0.41388   1.00
H2       0.16222    0.37511    0.34197   1.00
H2       0.28090    0.36164    0.40481   1.00
H2       0.17508    0.41386    0.36608   1.00
H2       0.21631    0.29810    0.38949   1.00
H2       0.25355    0.59477    0.34621   1.00
H2       0.30775    0.19864    0.38049   1.00
H2       0.16556    0.54005    0.35030   1.00
H2       0.25173    0.18433    0.40087   1.00
H2       0.22493    0.54458    0.36842   1.00
H2       0.23042    0.19804    0.37628   1.00
C4       0.16011    0.30777    0.15107   1.00
C4       0.19032    0.36387    0.16488   1.00
C3       0.08985    0.25684    0.15203   1.00
C3       0.15109    0.37692    0.17920   1.00
C3       0.20097    0.30148    0.13563   1.00
C3       0.26243    0.40925    0.16455   1.00
C2       0.09820    0.19613    0.12253   1.00
C2       0.25173    0.47534    0.19349   1.00
C3       0.05965    0.20287    0.13816   1.00
C3       0.18077    0.43070    0.19315   1.00
C3       0.16817    0.24597    0.12172   1.00
C3       0.29070    0.46320    0.17908   1.00
H1       0.05813    0.25667    0.16298   1.00
H1       0.09940    0.34823    0.17990   1.00
C5       0.27261    0.34957    0.13443   1.00
C5       0.30424    0.40042    0.14991   1.00
H1       0.00866    0.16796    0.13962   1.00
H1       0.14970    0.43722    0.20315   1.00
H1       0.19543    0.24005    0.11045   1.00
H1       0.34181    0.49623    0.17941   1.00
C6       0.31368    0.34653    0.11674   1.00
C6       0.38108    0.44426    0.15113   1.00
H2       0.28480    0.33847    0.10279   1.00
H2       0.39689    0.44780    0.16690   1.00
H2       0.35871    0.39576    0.11388   1.00
H2       0.40645    0.41939    0.14417   1.00
C6       0.33590    0.29164    0.11952   1.00
C6       0.40901    0.51651    0.14135   1.00
H2       0.29290    0.24439    0.12528   1.00
H2       0.37725    0.53789    0.14603   1.00
C6       0.36509    0.27332    0.10052   1.00
C6       0.48513    0.57127    0.14564   1.00
H2       0.37425    0.30937    0.13153   1.00
H2       0.40213    0.50966    0.12495   1.00
C6       0.31005    0.23747    0.08387   1.00
C6       0.49696    0.59216    0.16833   1.00
C6       0.42714    0.33730    0.09139   1.00
C6       0.53443    0.54582    0.13923   1.00
C6       0.38925    0.22304    0.10719   1.00
C6       0.50321    0.63616    0.13308   1.00
H2       0.26505    0.19267    0.08993   1.00
H2       0.46212    0.60933    0.17342   1.00
H2       0.29375    0.27149    0.07759   1.00
H2       0.48922    0.54982    0.17797   1.00
H2       0.32951    0.22070    0.07132   1.00
H2       0.54892    0.63365    0.17091   1.00
H2       0.45008    0.32337    0.07908   1.00
H2       0.58749    0.58605    0.14093   1.00
H2       0.41198    0.37236    0.08519   1.00
H2       0.52702    0.50294    0.14858   1.00
H2       0.46608    0.36430    0.10292   1.00
H2       0.52617    0.52943    0.12342   1.00
H2       0.34707    0.17653    0.11357   1.00
H2       0.47026    0.65667    0.13719   1.00
H2       0.40970    0.20834    0.09439   1.00
H2       0.55589    0.67616    0.13568   1.00
H2       0.42921    0.24596    0.11867   1.00
H2       0.49720    0.62499    0.11686   1.00
C4       0.70038    0.86652    0.15366   1.00
C4       0.64781    0.84165    0.16866   1.00
C3       0.69943    0.90322    0.13622   1.00
C3       0.59455    0.85782    0.16839   1.00
C3       0.75639    0.85463    0.15592   1.00
C3       0.64774    0.79900    0.18466   1.00
C2       0.80836    0.91975    0.12383   1.00
C2       0.53958    0.78867    0.19841   1.00
C3       0.75187    0.92936    0.12180   1.00
C3       0.54185    0.83193    0.18274   1.00
C3       0.80895    0.88244    0.14095   1.00
C3       0.59293    0.77338    0.19891   1.00
H1       0.66027    0.91174    0.13325   1.00
H1       0.59242    0.88957    0.15789   1.00
C5       0.75872    0.81557    0.17271   1.00
C5       0.70157    0.78328    0.18622   1.00
H1       0.74831    0.95563    0.10960   1.00
H1       0.50479    0.84529    0.18166   1.00
H1       0.84982    0.87546    0.14211   1.00
H1       0.59086    0.74252    0.21042   1.00
C6       0.82166    0.80957    0.17609   1.00
C6       0.69701    0.73234    0.20191   1.00
H2       0.86687    0.85941    0.17387   1.00
H2       0.64533    0.68882    0.20201   1.00
H2       0.82700    0.79937    0.19189   1.00
H2       0.72652    0.70856    0.19749   1.00
C6       0.82346    0.75367    0.16251   1.00
C6       0.72004    0.76403    0.22360   1.00
H2       0.80834    0.75743    0.14703   1.00
H2       0.69815    0.79637    0.22699   1.00
C6       0.89225    0.75314    0.16133   1.00
C6       0.70339    0.71371    0.24181   1.00
H2       0.78394    0.70392    0.16801   1.00
H2       0.77514    0.79858    0.22318   1.00
C6       0.94876    0.81781    0.15062   1.00
C6       0.62548    0.66990    0.24553   1.00
C6       0.91751    0.74704    0.18265   1.00
C6       0.73326    0.66605    0.23849   1.00
C6       0.88051    0.69037    0.14866   1.00
C6       0.73604    0.75609    0.26131   1.00
H2       0.93207    0.82419    0.13565   1.00
H2       0.60265    0.70207    0.24759   1.00
H2       0.96260    0.86368    0.15939   1.00
H2       0.59974    0.63565    0.23287   1.00
H2       0.99501    0.81478    0.14862   1.00
H2       0.61460    0.63845    0.25908   1.00
H2       0.96277    0.74180    0.18156   1.00
H2       0.72563    0.63459    0.25187   1.00
H2       0.93101    0.79224    0.19175   1.00
H2       0.70859    0.63175    0.22574   1.00
H2       0.87810    0.70267    0.19068   1.00
H2       0.78785    0.69560    0.23542   1.00
H2       0.86326    0.69254    0.13335   1.00
H2       0.71610    0.79019    0.26447   1.00
H2       0.92734    0.68802    0.14728   1.00
H2       0.72542    0.72313    0.27450   1.00
H2       0.84204    0.64293    0.15568   1.00
H2       0.79132    0.78713    0.25978   1.00
C4       0.13423    0.83543    0.15395   1.00
C4       0.15965    0.80818    0.16892   1.00
C3       0.08650    0.79394    0.13881   1.00
C3       0.13386    0.73682    0.17115   1.00
C3       0.15693    0.90679    0.15385   1.00
C3       0.21281    0.85327    0.18234   1.00
C2       0.08024    0.88989    0.12426   1.00
C2       0.21330    0.75321    0.19854   1.00
C3       0.06000    0.82015    0.12448   1.00
C3       0.16001    0.71007    0.18542   1.00
C3       0.12841    0.93139    0.13906   1.00
C3       0.23829    0.82399    0.19659   1.00
H1       0.06971    0.74324    0.13752   1.00
H1       0.09465    0.70156    0.16261   1.00
C5       0.20706    0.95157    0.16816   1.00
C5       0.23885    0.92541    0.18139   1.00
H1       0.02552    0.78751    0.11401   1.00
H1       0.13939    0.65813    0.18621   1.00
H1       0.14293    0.98174    0.13859   1.00
H1       0.27639    0.85443    0.20630   1.00
C6       0.22517    1.02555    0.16929   1.00
C6       0.29992    0.97298    0.19417   1.00
H2       0.17852    1.02828    0.16853   1.00
H2       0.33779    0.95678    0.19338   1.00
H2       0.24473    1.04733    0.18415   1.00
H2       0.32762    1.02375    0.18761   1.00
C6       0.27789    1.07141    0.15271   1.00
C6       0.28087    0.97881    0.21665   1.00
H2       0.26376    1.04509    0.13810   1.00
H2       0.24480    0.92807    0.22246   1.00
C6       0.28888    1.14473    0.14948   1.00
C6       0.34059    1.01404    0.23231   1.00
H2       0.32700    1.07612    0.15655   1.00
H2       0.25288    1.00653    0.21653   1.00
C6       0.22408    1.14252    0.14083   1.00
C6       0.37637    0.97170    0.23585   1.00
C6       0.31003    1.18653    0.16942   1.00
C6       0.39421    1.08700    0.22549   1.00
C6       0.34715    1.18268    0.13382   1.00
C6       0.31068    1.01961    0.25294   1.00
H2       0.20717    1.11241    0.12691   1.00
H2       0.33968    0.91953    0.24037   1.00
H2       0.18210    1.12019    0.15163   1.00
H2       0.40222    0.96926    0.22222   1.00
H2       0.23370    1.19367    0.13731   1.00
H2       0.41471    0.99417    0.24780   1.00
H2       0.32229    1.23901    0.16671   1.00
H2       0.43298    1.11286    0.23716   1.00
H2       0.26886    1.16457    0.18052   1.00
H2       0.42022    1.08570    0.21173   1.00
H2       0.35473    1.18768    0.17605   1.00
H2       0.37010    1.11747    0.22248   1.00
H2       0.33445    1.15559    0.11935   1.00
H2       0.27294    0.96927    0.25855   1.00
H2       0.35646    1.23413    0.13094   1.00
H2       0.35047    1.04354    0.26444   1.00
H2       0.39474    1.18712    0.13925   1.00
H2       0.28588    1.05016    0.25152   1.00
C4       0.97522    0.49563    0.68256   1.00
C4       1.03111    0.52636    0.66869   1.00
C3       0.93510    0.42364    0.68511   1.00
C3       1.05525    0.48788    0.65800   1.00
C3       0.95800    0.53772    0.69443   1.00
C3       1.06483    0.59828    0.66520   1.00
C2       0.86429    0.43357    0.71133   1.00
C2       1.14197    0.58793    0.63988   1.00
C3       0.88153    0.39345    0.69912   1.00
C3       1.10874    0.51754    0.64396   1.00
C3       0.90331    0.50498    0.70861   1.00
C3       1.11886    0.62646    0.65069   1.00
H1       0.94287    0.39041    0.67675   1.00
H1       1.03530    0.43695    0.66018   1.00
C5       0.99469    0.61036    0.69192   1.00
C5       1.04470    0.64012    0.67613   1.00
H1       0.85472    0.34124    0.70030   1.00
H1       1.12357    0.48694    0.63669   1.00
H1       0.88984    0.53320    0.71742   1.00
H1       1.14377    0.67731    0.64769   1.00
C6       0.98076    0.65465    0.70607   1.00
C6       1.07586    0.71482    0.67073   1.00
H2       0.97696    0.63624    0.72155   1.00
H2       1.07774    0.72004    0.65427   1.00
H2       1.02435    0.70591    0.70717   1.00
H2       1.04254    0.73459    0.67485   1.00
C6       0.91629    0.65923    0.69993   1.00
C6       1.14765    0.76084    0.68059   1.00
H2       0.87468    0.60850    0.69592   1.00
H2       1.17834    0.73614    0.67905   1.00
C6       0.88816    0.69066    0.71574   1.00
C6       1.19115    0.83569    0.67260   1.00
H2       0.92839    0.68903    0.68596   1.00
H2       1.14014    0.76279    0.69689   1.00
C6       0.85951    0.64515    0.73488   1.00
C6       1.21349    0.83759    0.65025   1.00
C6       0.94353    0.76337    0.72219   1.00
C6       1.15204    0.87534    0.67440   1.00
C6       0.82867    0.69572    0.70580   1.00
C6       1.25681    0.87324    0.68566   1.00
H2       0.82104    0.59311    0.73080   1.00
H2       1.24030    0.80907    0.64840   1.00
H2       0.89959    0.64277    0.74332   1.00
H2       1.16990    0.81572    0.64002   1.00
H2       0.83579    0.66497    0.74516   1.00
H2       1.24764    0.88984    0.64527   1.00
H2       0.92218    0.78667    0.73207   1.00
H2       1.18448    0.92874    0.67016   1.00
H2       0.98451    0.76215    0.73051   1.00
H2       1.10776    0.85378    0.66441   1.00
H2       0.96557    0.79609    0.70895   1.00
H2       1.13448    0.87358    0.68992   1.00
H2       0.78775    0.64550    0.70115   1.00
H2       1.28676    0.84765    0.68475   1.00
H2       0.80697    0.71702    0.71633   1.00
H2       1.28918    0.92574    0.68057   1.00
H2       0.84601    0.72839    0.69241   1.00
H2       1.24442    0.87483    0.70158   1.00
C4       0.51959    0.02515    0.68242   1.00
C4       0.49403    -0.03087   0.66859   1.00
C3       0.49406    0.07128    0.68301   1.00
C3       0.43653    -0.04891   0.65590   1.00
C3       0.57277    0.03631    0.69628   1.00
C3       0.52652    -0.07101   0.66721   1.00
C2       0.56889    0.13648    0.71106   1.00
C2       0.44435    -0.14207   0.63989   1.00
C3       0.51763    0.12507    0.69695   1.00
C3       0.41256    -0.10256   0.64190   1.00
C3       0.59509    0.09145    0.71030   1.00
C3       0.50076    -0.12499   0.65269   1.00
H1       0.45786    0.06794    0.67321   1.00
H1       0.40949    -0.02416   0.65649   1.00
C5       0.60248    -0.00669   0.69583   1.00
C5       0.58284    -0.05711   0.68019   1.00
H1       0.49694    0.15638    0.69665   1.00
H1       0.37102    -0.11282   0.63313   1.00
H1       0.63248    0.10073    0.72049   1.00
H1       0.52280    -0.15437   0.65116   1.00
C6       0.65349    0.00114    0.71197   1.00
C6       0.62125    -0.09520   0.67709   1.00
H2       0.63520    0.00700    0.72670   1.00
H2       0.62963    -0.09771   0.66091   1.00
H2       0.65489    -0.04573   0.71410   1.00
H2       0.67323    -0.06639   0.68273   1.00
C6       0.72753    0.06082    0.70752   1.00
C6       0.58524    -0.16775   0.68707   1.00
H2       0.72550    0.10576    0.70247   1.00
H2       0.53058    -0.19350   0.68386   1.00
C6       0.78095    0.08348    0.72512   1.00
C6       0.61168    -0.21742   0.68112   1.00
H2       0.74715    0.04585    0.69456   1.00
H2       0.58948    -0.16085   0.70351   1.00
C6       0.76240    0.11583    0.74297   1.00
C6       0.59746    -0.23869   0.65849   1.00
C6       0.78810    0.02307    0.73316   1.00
C6       0.68897    -0.18558   0.68538   1.00
C6       0.85148    0.13842    0.71681   1.00
C6       0.57317    -0.28320   0.69409   1.00
H2       0.75589    0.15799    0.73773   1.00
H2       0.54343    -0.26036   0.65490   1.00
H2       0.71526    0.07871    0.75035   1.00
H2       0.62637    -0.19540   0.64845   1.00
H2       0.80229    0.13572    0.75451   1.00
H2       0.61173    -0.27690   0.65484   1.00
H2       0.82885    0.04031    0.74438   1.00
H2       0.70585    -0.22232   0.68255   1.00
H2       0.74114    -0.01504   0.74043   1.00
H2       0.71881    -0.14168   0.67561   1.00
H2       0.79975    -0.00154   0.72081   1.00
H2       0.70058    -0.16885   0.70112   1.00
H2       0.84942    0.18264    0.71112   1.00
H2       0.51826    -0.30815   0.69148   1.00
H2       0.89052    0.15623    0.72861   1.00
H2       0.58959    -0.31977   0.69038   1.00
H2       0.86806    0.11820    0.70441   1.00
H2       0.58233    -0.27169   0.71024   1.00
C4       0.50551    0.48039    0.68243   1.00
C4       0.47504    0.50593    0.66859   1.00
C3       0.57720    0.50616    0.68309   1.00
C3       0.51449    0.56363    0.65597   1.00
C3       0.46347    0.42697    0.69622   1.00
C3       0.40240    0.47321    0.66714   1.00
C2       0.56754    0.43110    0.71107   1.00
C2       0.41352    0.55559    0.63989   1.00
C3       0.60742    0.48259    0.69702   1.00
C3       0.48480    0.58760    0.64198   1.00
C3       0.49628    0.40466    0.71025   1.00
C3       0.37418    0.49897    0.65262   1.00
H1       0.61009    0.54255    0.67333   1.00
H1       0.56627    0.59083    0.65662   1.00
C5       0.39073    0.39701    0.69570   1.00
C5       0.35998    0.41667    0.68005   1.00
H1       0.65945    0.50347    0.69678   1.00
H1       0.51608    0.62929    0.63326   1.00
H1       0.46815    0.36710    0.72038   1.00
H1       0.32277    0.47678    0.65104   1.00
C6       0.34749    0.34573    0.71176   1.00
C6       0.28352    0.37805    0.67686   1.00
H2       0.37143    0.36389    0.72653   1.00
H2       0.27285    0.36985    0.66067   1.00
H2       0.29909    0.34409    0.71387   1.00
H2       0.26047    0.32602    0.68245   1.00
C6       0.33347    0.27184    0.70725   1.00
C6       0.24663    0.41370    0.68685   1.00
H2       0.38059    0.27413    0.70224   1.00
H2       0.27541    0.46841    0.68371   1.00
C6       0.30266    0.21818    0.72478   1.00
C6       0.17054    0.38707    0.68083   1.00
H2       0.29904    0.25227    0.69425   1.00
H2       0.24912    0.40928    0.70329   1.00
C6       0.35337    0.23669    0.74269   1.00
C6       0.16369    0.40151    0.65820   1.00
C6       0.23489    0.21065    0.73277   1.00
C6       0.12528    0.30970    0.68500   1.00
C6       0.28744    0.14784    0.71642   1.00
C6       0.14289    0.42521    0.69381   1.00
H2       0.40218    0.24346    0.73749   1.00
H2       0.19593    0.45561    0.65468   1.00
H2       0.36312    0.28368    0.75011   1.00
H2       0.17834    0.37285    0.64815   1.00
H2       0.33336    0.19666    0.75419   1.00
H2       0.11120    0.38708    0.65451   1.00
H2       0.21137    0.16975    0.74395   1.00
H2       0.07164    0.29265    0.68212   1.00
H2       0.24347    0.25746    0.74009   1.00
H2       0.13961    0.28010    0.67521   1.00
H2       0.19875    0.19902    0.72039   1.00
H2       0.13027    0.29794    0.70074   1.00
H2       0.33388    0.15016    0.71076   1.00
H2       0.17271    0.48016    0.69126   1.00
H2       0.26620    0.10865    0.72817   1.00
H2       0.08990    0.40864    0.69004   1.00
H2       0.25078    0.13129    0.70397   1.00
H2       0.14509    0.41588    0.70996   1.00
C4       0.50887    0.03526    0.17907   1.00
C4       0.47943    -0.01764   0.16420   1.00
C3       0.57113    0.05272    0.18917   1.00
C3       0.51360    -0.05181   0.15686   1.00
C3       0.47542    0.07259    0.18424   1.00
C3       0.41336    -0.03773   0.15616   1.00
C2       0.57019    0.14445    0.20841   1.00
C2       0.41854    -0.12690   0.13486   1.00
C3       0.60113    0.10584    0.20333   1.00
C3       0.48406    -0.10501   0.14272   1.00
C3       0.50786    0.12656    0.19865   1.00
C3       0.38492    -0.09239   0.14187   1.00
H1       0.59667    0.02704    0.18678   1.00
H1       0.56153    -0.03886   0.16136   1.00
C5       0.41119    0.05546    0.17520   1.00
C5       0.37767    -0.00329   0.16233   1.00
H1       0.64622    0.11608    0.21003   1.00
H1       0.51125    -0.12777   0.13809   1.00
H1       0.48588    0.15457    0.20262   1.00
H1       0.33787    -0.10844   0.13592   1.00
C6       0.38003    0.09996    0.17917   1.00
C6       0.30497    -0.02979   0.15538   1.00
H2       0.41975    0.15334    0.17814   1.00
H2       0.27677    -0.08516   0.15675   1.00
H2       0.34586    0.09614    0.16702   1.00
H2       0.27714    -0.01522   0.16575   1.00
C6       0.34085    0.08391    0.19986   1.00
C6       0.29998    -0.00608   0.13342   1.00
H2       0.37110    0.07784    0.21174   1.00
H2       0.33558    -0.01142   0.12344   1.00
C6       0.31974    0.13603    0.20768   1.00
C6       0.22833    -0.04214   0.12294   1.00
H2       0.29481    0.03402    0.19849   1.00
H2       0.31830    0.04861    0.13400   1.00
C6       0.38286    0.20568    0.21315   1.00
C6       0.20327    -0.11838   0.11856   1.00
C6       0.27570    0.14740    0.19189   1.00
C6       0.17430    -0.03651   0.13591   1.00
C6       0.27661    0.10694    0.22726   1.00
C6       0.23426    -0.00660   0.10229   1.00
H2       0.41562    0.19927    0.22403   1.00
H2       0.24084    -0.12416   0.10970   1.00
H2       0.41336    0.23104    0.19980   1.00
H2       0.19395    -0.14741   0.13252   1.00
H2       0.36760    0.24003    0.21989   1.00
H2       0.15562    -0.14183   0.11001   1.00
H2       0.25721    0.17995    0.19804   1.00
H2       0.12584    -0.05746   0.12784   1.00
H2       0.30516    0.17217    0.17830   1.00
H2       0.16472    -0.06472   0.15007   1.00
H2       0.23163    0.09896    0.18745   1.00
H2       0.19134    0.01661    0.13957   1.00
H2       0.30568    0.09863    0.23901   1.00
H2       0.27136    -0.00975   0.09244   1.00
H2       0.26099    0.14183    0.23339   1.00
H2       0.18548    -0.03033   0.09431   1.00
H2       0.23051    0.05832    0.22428   1.00
H2       0.25047    0.04720    0.10441   1.00
C4       0.97420    0.48123    0.18219   1.00
C4       1.02840    0.50908    0.16771   1.00
C3       0.97607    0.44622    0.19992   1.00
C3       1.09115    0.51019    0.17098   1.00
C3       0.91543    0.48809    0.17905   1.00
C3       1.02049    0.53719    0.14917   1.00
C2       0.86612    0.42783    0.21199   1.00
C2       1.13677    0.56233    0.13800   1.00
C3       0.92391    0.42059    0.21443   1.00
C3       1.14362    0.53566    0.15656   1.00
C3       0.86359    0.46160    0.19425   1.00
C3       1.07500    0.56228    0.13484   1.00
H1       1.01509    0.43743    0.20285   1.00
H1       1.10136    0.49316    0.18405   1.00
C5       0.90933    0.52031    0.16107   1.00
C5       0.95962    0.54010    0.14539   1.00
H1       0.92844    0.39608    0.22694   1.00
H1       1.18752    0.53476    0.15981   1.00
H1       0.82125    0.46591    0.19263   1.00
H1       1.07108    0.58224    0.12142   1.00
C6       0.85044    0.53368    0.15898   1.00
C6       0.94891    0.56324    0.12486   1.00
H2       0.84344    0.55341    0.17330   1.00
H2       0.96363    0.53945    0.11304   1.00
H2       0.86270    0.57593    0.14875   1.00
H2       0.89511    0.54278    0.12158   1.00
C6       0.78280    0.46968    0.15169   1.00
C6       0.98695    0.64276    0.12252   1.00
H2       0.77523    0.42459    0.15998   1.00
H2       1.03865    0.66470    0.12858   1.00
C6       0.71538    0.47270    0.15330   1.00
C6       0.99221    0.67234    0.10071   1.00
H2       0.78977    0.46015    0.13587   1.00
H2       0.96141    0.66203    0.13231   1.00
C6       0.69575    0.47521    0.17570   1.00
C6       1.03735    0.65646    0.08660   1.00
C6       0.72088    0.53481    0.14173   1.00
C6       0.92099    0.64470    0.09091   1.00
C6       0.65659    0.40703    0.14362   1.00
C6       1.02607    0.75109    0.10228   1.00
H2       0.69255    0.43259    0.18437   1.00
H2       1.08767    0.67435    0.09325   1.00
H2       0.73294    0.52227    0.18310   1.00
H2       1.01435    0.60195    0.08381   1.00
H2       0.64637    0.47252    0.17671   1.00
H2       1.04457    0.68125    0.07189   1.00
H2       0.67215    0.53376    0.14172   1.00
H2       0.92485    0.66929    0.07634   1.00
H2       0.75840    0.58252    0.14880   1.00
H2       0.89680    0.59001    0.08818   1.00
H2       0.73605    0.53505    0.12602   1.00
H2       0.88771    0.65396    0.10075   1.00
H2       0.65006    0.36155    0.15139   1.00
H2       1.07695    0.77331    0.10893   1.00
H2       0.60821    0.40655    0.14450   1.00
H2       1.03130    0.77421    0.08738   1.00
H2       0.66682    0.40304    0.12765   1.00
H2       0.99581    0.76558    0.11174   1.00
C4       0.51942    0.49418    0.18238   1.00
C4       0.49142    0.52068    0.16800   1.00
C3       0.56299    0.53447    0.19847   1.00
C3       0.49912    0.58684    0.16993   1.00
C3       0.50389    0.42488    0.18084   1.00
C3       0.45404    0.48012    0.15096   1.00
C2       0.57339    0.43971    0.21207   1.00
C2       0.43768    0.57563    0.13840   1.00
C3       0.58894    0.50809    0.21293   1.00
C3       0.47342    0.61372    0.15555   1.00
C3       0.53104    0.39987    0.19594   1.00
C3       0.42902    0.50953    0.13660   1.00
H1       0.57807    0.58468    0.20016   1.00
H1       0.52310    0.61773    0.18196   1.00
C5       0.46265    0.38264    0.16448   1.00
C5       0.44216    0.41205    0.14865   1.00
H1       0.61987    0.53972    0.22421   1.00
H1       0.48092    0.66189    0.15777   1.00
H1       0.52075    0.35075    0.19543   1.00
H1       0.40261    0.48246    0.12421   1.00
C6       0.44066    0.30755    0.16424   1.00
C6       0.40893    0.37248    0.12948   1.00
H2       0.42444    0.28676    0.17944   1.00
H2       0.43127    0.40598    0.11643   1.00
H2       0.39401    0.27798    0.15560   1.00
H2       0.42261    0.33361    0.12653   1.00
C6       0.49684    0.29298    0.15580   1.00
C6       0.32926    0.33829    0.12967   1.00
H2       0.54631    0.32945    0.16229   1.00
H2       0.31480    0.37451    0.13548   1.00
C6       0.48605    0.21971    0.15899   1.00
C6       0.29074    0.30915    0.10915   1.00
H2       0.50179    0.30381    0.13954   1.00
H2       0.30958    0.29687    0.14075   1.00
C6       0.48939    0.20427    0.18175   1.00
C6       0.30764    0.36662    0.09350   1.00
C6       0.41725    0.16423    0.15000   1.00
C6       0.30740    0.25638    0.09982   1.00
C6       0.54418    0.21521    0.14790   1.00
C6       0.21283    0.27259    0.11329   1.00
H2       0.53694    0.24319    0.18864   1.00
H2       0.29747    0.40533    0.09975   1.00
H2       0.44731    0.20245    0.19027   1.00
H2       0.36098    0.39182    0.08894   1.00
H2       0.48656    0.15507    0.18371   1.00
H2       0.27702    0.34637    0.07978   1.00
H2       0.41241    0.11388    0.15100   1.00
H2       0.27664    0.23282    0.08631   1.00
H2       0.37441    0.16205    0.15820   1.00
H2       0.36081    0.28050    0.09533   1.00
H2       0.41298    0.17469    0.13408   1.00
H2       0.29729    0.21608    0.11069   1.00
H2       0.59399    0.25297    0.15385   1.00
H2       0.19820    0.30789    0.11971   1.00
H2       0.53911    0.16498    0.14981   1.00
H2       0.18365    0.25172    0.09935   1.00
H2       0.54365    0.22429    0.13166   1.00
H2       0.19746    0.23050    0.12394   1.00
C4       0.70205    0.84169    0.65431   1.00
C4       0.64906    0.81205    0.66915   1.00
C3       0.72287    0.90643    0.64534   1.00
C3       0.61821    0.84802    0.67759   1.00
C3       0.73600    0.80589    0.64800   1.00
C3       0.62545    0.74393    0.67600   1.00
C2       0.81146    0.90319    0.62504   1.00
C2       0.53960    0.75101    0.69842   1.00
C3       0.77611    0.93650    0.63122   1.00
C3       0.56492    0.81843    0.69171   1.00
C3       0.79022    0.83846    0.63367   1.00
C3       0.57081    0.71553    0.69031   1.00
H1       0.69967    0.93387    0.64857   1.00
H1       0.63376    0.89730    0.67396   1.00
C5       0.71538    0.73929    0.65586   1.00
C5       0.65647    0.70618    0.66868   1.00
H1       0.78886    0.98344    0.62537   1.00
H1       0.54465    0.84698    0.69716   1.00
H1       0.81589    0.81482    0.62892   1.00
H1       0.55232    0.66709    0.69544   1.00
C6       0.75641    0.70518    0.65071   1.00
C6       0.62624    0.63183    0.67440   1.00
H2       0.81053    0.74250    0.65197   1.00
H2       0.57092    0.60653    0.67308   1.00
H2       0.75056    0.66810    0.66217   1.00
H2       0.63854    0.60416    0.66328   1.00
C6       0.73837    0.66960    0.62942   1.00
C6       0.64887    0.62128    0.69593   1.00
H2       0.73441    0.70321    0.61828   1.00
H2       0.64598    0.65643    0.70671   1.00
C6       0.78741    0.64603    0.62057   1.00
C6       0.60948    0.54798    0.70529   1.00
H2       0.68722    0.62513    0.63040   1.00
H2       0.70290    0.63681    0.69510   1.00
C6       0.85875    0.70758    0.61562   1.00
C6       0.53418    0.52618    0.71003   1.00
C6       0.79562    0.59721    0.63525   1.00
C6       0.61147    0.49438    0.69114   1.00
C6       0.75653    0.60701    0.60045   1.00
C6       0.64423    0.54815    0.72561   1.00
H2       0.85462    0.74361    0.60553   1.00
H2       0.53100    0.56359    0.71973   1.00
H2       0.88522    0.73496    0.62930   1.00
H2       0.50551    0.52091    0.69623   1.00
H2       0.89098    0.69095    0.60817   1.00
H2       0.50850    0.47712    0.71782   1.00
H2       0.82591    0.57726    0.62835   1.00
H2       0.58814    0.44442    0.69841   1.00
H2       0.82146    0.62352    0.64915   1.00
H2       0.58357    0.48883    0.67713   1.00
H2       0.74600    0.55412    0.63932   1.00
H2       0.66390    0.50925    0.68722   1.00
H2       0.75032    0.63953    0.58944   1.00
H2       0.64356    0.58474    0.73626   1.00
H2       0.78925    0.58986    0.59359   1.00
H2       0.61820    0.49804    0.73282   1.00
H2       0.70660    0.56210    0.60301   1.00
H2       0.69727    0.56184    0.72321   1.00
C4       0.13384    0.29916    0.65382   1.00
C4       0.15717    0.35367    0.66814   1.00
C3       0.14335    0.24212    0.65674   1.00
C3       0.18513    0.35156    0.68731   1.00
C3       0.09967    0.30097    0.63579   1.00
C3       0.15268    0.41291    0.66338   1.00
C2       0.08372    0.18728    0.62536   1.00
C2       0.20746    0.46528    0.69670   1.00
C3       0.11881    0.18767    0.64302   1.00
C3       0.20985    0.40573    0.70114   1.00
C3       0.07512    0.24431    0.62226   1.00
C3       0.17877    0.46711    0.67783   1.00
H1       0.16907    0.23831    0.66885   1.00
H1       0.18795    0.31030    0.69203   1.00
C5       0.09111    0.35839    0.63161   1.00
C5       0.12242    0.41678    0.64468   1.00
H1       0.12709    0.14789    0.64604   1.00
H1       0.22965    0.40116    0.71468   1.00
H1       0.05017    0.24351    0.60935   1.00
H1       0.17691    0.51025    0.67493   1.00
C6       0.04858    0.35634    0.61361   1.00
C6       0.12459    0.48254    0.63889   1.00
H2       0.00242    0.30653    0.61301   1.00
H2       0.17523    0.52528    0.64213   1.00
H2       0.02774    0.38996    0.61573   1.00
H2       0.12134    0.48695    0.62256   1.00
C6       0.08862    0.37445    0.59304   1.00
C6       0.06739    0.49152    0.64934   1.00
H2       0.11791    0.34811    0.59211   1.00
H2       0.06369    0.47747    0.66535   1.00
C6       0.04633    0.35940    0.57300   1.00
C6       0.07363    0.56348    0.64813   1.00
H2       0.12662    0.42872    0.59337   1.00
H2       0.01862    0.45426    0.64267   1.00
C6       -0.00151   0.28177    0.56971   1.00
C6       0.13627    0.61776    0.66015   1.00
C6       0.00354    0.39550    0.57278   1.00
C6       0.07832    0.58754    0.62589   1.00
C6       0.09660    0.38683    0.55482   1.00
C6       0.00891    0.55887    0.65780   1.00
H2       0.02703    0.25463    0.57011   1.00
H2       0.13505    0.60176    0.67585   1.00
H2       -0.04094   0.25985    0.58131   1.00
H2       0.18392    0.62669    0.65339   1.00
H2       -0.02720   0.27157    0.55505   1.00
H2       0.13751    0.66655    0.66039   1.00
H2       -0.02188   0.38871    0.55819   1.00
H2       0.07773    0.63539    0.62515   1.00
H2       -0.03586   0.37471    0.58444   1.00
H2       0.12544    0.59613    0.61879   1.00
H2       0.03583    0.45007    0.57550   1.00
H2       0.03553    0.54955    0.61699   1.00
H2       0.12766    0.36238    0.55415   1.00
H2       0.00357    0.54273    0.67362   1.00
H2       0.06940    0.37708    0.54043   1.00
H2       0.01109    0.60812    0.65743   1.00
H2       0.13092    0.44176    0.55606   1.00
H2       -0.03703   0.52228    0.64971   1.00
C4       0.16490    0.86595    0.65389   1.00
C4       0.19603    0.84268    0.66825   1.00
C3       0.09703    0.85340    0.65626   1.00
C3       0.16428    0.81163    0.68698   1.00
C3       0.20227    0.90318    0.63639   1.00
C3       0.26145    0.85043    0.66398   1.00
C2       0.10306    0.91587    0.62539   1.00
C2       0.25742    0.79256    0.69684   1.00
C3       0.06706    0.87783    0.64253   1.00
C3       0.19377    0.78699    0.70082   1.00
C3       0.17004    0.92750    0.62282   1.00
C3       0.28957    0.82431    0.67842   1.00
H1       0.06658    0.82546    0.66796   1.00
H1       0.11884    0.80636    0.69136   1.00
C5       0.26975    0.91493    0.63274   1.00
C5       0.29720    0.88385    0.64576   1.00
H1       0.01802    0.86729    0.64514   1.00
H1       0.16815    0.76486    0.71402   1.00
H1       0.19514    0.95456    0.61028   1.00
H1       0.33577    0.82845    0.67586   1.00
C6       0.31134    0.96052    0.61537   1.00
C6       0.36290    0.88522    0.64041   1.00
H2       0.30566    1.00554    0.61509   1.00
H2       0.35669    0.83499    0.64321   1.00
H2       0.36576    0.98297    0.61803   1.00
H2       0.37253    0.89080    0.62418   1.00
C6       0.29320    0.92308    0.59436   1.00
C6       0.42667    0.94263    0.65176   1.00
H2       0.23782    0.89218    0.59282   1.00
H2       0.41403    0.94376    0.66770   1.00
C6       0.32152    0.96812    0.57485   1.00
C6       0.49417    0.93952    0.65097   1.00
H2       0.31144    0.88662    0.59452   1.00
H2       0.43706    0.99162    0.64553   1.00
C6       0.28940    1.01399    0.57170   1.00
C6       0.48696    0.87644    0.66244   1.00
C6       0.40019    1.01337    0.57551   1.00
C6       0.51681    0.93861    0.62885   1.00
C6       0.30261    0.92034    0.55615   1.00
C6       0.55150    1.00412    0.66153   1.00
H2       0.23379    0.98365    0.57150   1.00
H2       0.46994    0.87499    0.67803   1.00
H2       0.30415    1.05179    0.58372   1.00
H2       0.45034    0.82907    0.65506   1.00
H2       0.30583    1.04162    0.55737   1.00
H2       0.53552    0.87725    0.66302   1.00
H2       0.41983    1.04086    0.56126   1.00
H2       0.56632    0.94138    0.62846   1.00
H2       0.41605    1.05117    0.58759   1.00
H2       0.48041    0.89182    0.62113   1.00
H2       0.42403    0.98244    0.57814   1.00
H2       0.52088    0.98175    0.62031   1.00
H2       0.24741    0.88768    0.55485   1.00
H2       0.53835    1.00686    0.67731   1.00
H2       0.32095    0.94950    0.54210   1.00
H2       0.59970    1.00408    0.66149   1.00
H2       0.32501    0.88754    0.55728   1.00
H2       0.55999    1.05043    0.65386   1.00
