data_IRMOF10_interpen_symm_ligand11cp_label_d_1.

_audit_creation_method             'generated by an auxiliary program of Tobunporous'

_symmetry_space_group_name_H-M     'P 1'
_symmetry_Int_Tables_number        1
_symmetry_cell_setting             triclinic

_cell_length_a                    22.6523
_cell_length_b                    22.6523
_cell_length_c                    65.9502
_cell_angle_alpha                 90.0000
_cell_angle_beta                  90.0000
_cell_angle_gamma                 120.0000

loop_
_atom_site_label
_atom_site_fract_x
_atom_site_fract_y
_atom_site_fract_z
_atom_site_occupancy
O1       0.00000    0.00000    0.57470   1.00
Zn1      0.00000    0.00000    0.54560   1.00
Zn1      0.94843    0.04287    0.58357   1.00
Zn1      0.09443    0.05157    0.58357   1.00
Zn1      0.95713    0.90557    0.58357   1.00
O2       0.93860    0.02610    0.53560   1.00
O2       0.08750    0.06140    0.53560   1.00
O2       0.97390    0.91250    0.53560   1.00
O2       0.91300    0.07160    0.56150   1.00
O2       0.00463    0.12027    0.60077   1.00
O2       0.87413    0.98077    0.60037   1.00
O2       0.15860    0.08700    0.56150   1.00
O2       0.10663    0.12587    0.60037   1.00
O2       0.11563    0.99537    0.60077   1.00
O2       0.92840    0.84140    0.56150   1.00
O2       0.87973    0.88437    0.60077   1.00
O2       0.01923    0.89337    0.60037   1.00
C1       0.91390    0.06020    0.54330   1.00
C1       0.14630    0.08610    0.54330   1.00
C1       0.93980    0.85370    0.54330   1.00
C1       0.06663    0.14397    0.60637   1.00
C1       0.85603    0.92267    0.60637   1.00
C1       0.07733    0.93337    0.60637   1.00
O1       0.00000    0.00000    0.92530   1.00
Zn1      0.00000    0.00000    0.95440   1.00
Zn1      0.04287    0.94843    0.91643   1.00
Zn1      0.05157    0.09443    0.91643   1.00
Zn1      0.90557    0.95713    0.91643   1.00
O2       0.02610    0.93860    0.96440   1.00
O2       0.06140    0.08750    0.96440   1.00
O2       0.91250    0.97390    0.96440   1.00
O2       0.07160    0.91300    0.93850   1.00
O2       0.12027    0.00463    0.89923   1.00
O2       0.98077    0.87413    0.89963   1.00
O2       0.08700    0.15860    0.93850   1.00
O2       0.12587    0.10663    0.89963   1.00
O2       0.99537    0.11563    0.89923   1.00
O2       0.84140    0.92840    0.93850   1.00
O2       0.88437    0.87973    0.89923   1.00
O2       0.89337    0.01923    0.89963   1.00
C1       0.06020    0.91390    0.95670   1.00
C1       0.08610    0.14630    0.95670   1.00
C1       0.85370    0.93980    0.95670   1.00
C1       0.14397    0.06663    0.89363   1.00
C1       0.92267    0.85603    0.89363   1.00
C1       0.93337    0.07733    0.89363   1.00
O1       0.00000    0.00000    0.42530   1.00
Zn1      0.00000    0.00000    0.45440   1.00
Zn1      0.05157    0.95713    0.41643   1.00
Zn1      0.90557    0.94843    0.41643   1.00
Zn1      0.04287    0.09443    0.41643   1.00
O2       0.06140    0.97390    0.46440   1.00
O2       0.91250    0.93860    0.46440   1.00
O2       0.02610    0.08750    0.46440   1.00
O2       0.08700    0.92840    0.43850   1.00
O2       0.99537    0.87973    0.39923   1.00
O2       0.12587    0.01923    0.39963   1.00
O2       0.84140    0.91300    0.43850   1.00
O2       0.89337    0.87413    0.39963   1.00
O2       0.88437    0.00463    0.39923   1.00
O2       0.07160    0.15860    0.43850   1.00
O2       0.12027    0.11563    0.39923   1.00
O2       0.98077    0.10663    0.39963   1.00
C1       0.08610    0.93980    0.45670   1.00
C1       0.85370    0.91390    0.45670   1.00
C1       0.06020    0.14630    0.45670   1.00
C1       0.93337    0.85603    0.39363   1.00
C1       0.14397    0.07733    0.39363   1.00
C1       0.92267    0.06663    0.39363   1.00
O1       0.00000    0.00000    0.07470   1.00
Zn1      0.00000    0.00000    0.04560   1.00
Zn1      0.95713    0.05157    0.08357   1.00
Zn1      0.94843    0.90557    0.08357   1.00
Zn1      0.09443    0.04287    0.08357   1.00
O2       0.97390    0.06140    0.03560   1.00
O2       0.93860    0.91250    0.03560   1.00
O2       0.08750    0.02610    0.03560   1.00
O2       0.92840    0.08700    0.06150   1.00
O2       0.87973    0.99537    0.10077   1.00
O2       0.01923    0.12587    0.10037   1.00
O2       0.91300    0.84140    0.06150   1.00
O2       0.87413    0.89337    0.10037   1.00
O2       0.00463    0.88437    0.10077   1.00
O2       0.15860    0.07160    0.06150   1.00
O2       0.11563    0.12027    0.10077   1.00
O2       0.10663    0.98077    0.10037   1.00
C1       0.93980    0.08610    0.04330   1.00
C1       0.91390    0.85370    0.04330   1.00
C1       0.14630    0.06020    0.04330   1.00
C1       0.85603    0.93337    0.10637   1.00
C1       0.07733    0.14397    0.10637   1.00
C1       0.06663    0.92267    0.10637   1.00
O1       0.66667    0.33333    0.90803   1.00
Zn1      0.66667    0.33333    0.87893   1.00
Zn1      0.61510    0.37620    0.91690   1.00
Zn1      0.76110    0.38490    0.91690   1.00
Zn1      0.62380    0.23890    0.91690   1.00
O2       0.60527    0.35943    0.86893   1.00
O2       0.75417    0.39473    0.86893   1.00
O2       0.64057    0.24583    0.86893   1.00
O2       0.57967    0.40493    0.89483   1.00
O2       0.67130    0.45360    0.93410   1.00
O2       0.54080    0.31410    0.93370   1.00
O2       0.82527    0.42033    0.89483   1.00
O2       0.77330    0.45920    0.93370   1.00
O2       0.78230    0.32870    0.93410   1.00
O2       0.59507    0.17473    0.89483   1.00
O2       0.54640    0.21770    0.93410   1.00
O2       0.68590    0.22670    0.93370   1.00
C1       0.58057    0.39353    0.87663   1.00
C1       0.81297    0.41943    0.87663   1.00
C1       0.60647    0.18703    0.87663   1.00
C1       0.73330    0.47730    0.93970   1.00
C1       0.52270    0.25600    0.93970   1.00
C1       0.74400    0.26670    0.93970   1.00
O1       0.66667    0.33333    0.25863   1.00
Zn1      0.66667    0.33333    0.28773   1.00
Zn1      0.70953    0.28177    0.24977   1.00
Zn1      0.71823    0.42777    0.24977   1.00
Zn1      0.57223    0.29047    0.24977   1.00
O2       0.69277    0.27193    0.29773   1.00
O2       0.72807    0.42083    0.29773   1.00
O2       0.57917    0.30723    0.29773   1.00
O2       0.73827    0.24633    0.27183   1.00
O2       0.78693    0.33797    0.23257   1.00
O2       0.64743    0.20747    0.23297   1.00
O2       0.75367    0.49193    0.27183   1.00
O2       0.79253    0.43997    0.23297   1.00
O2       0.66203    0.44897    0.23257   1.00
O2       0.50807    0.26173    0.27183   1.00
O2       0.55103    0.21307    0.23257   1.00
O2       0.56003    0.35257    0.23297   1.00
C1       0.72687    0.24723    0.29003   1.00
C1       0.75277    0.47963    0.29003   1.00
C1       0.52037    0.27313    0.29003   1.00
C1       0.81063    0.39997    0.22697   1.00
C1       0.58933    0.18937    0.22697   1.00
C1       0.60003    0.41067    0.22697   1.00
O1       0.66667    0.33333    0.75863   1.00
Zn1      0.66667    0.33333    0.78773   1.00
Zn1      0.71823    0.29047    0.74977   1.00
Zn1      0.57223    0.28177    0.74977   1.00
Zn1      0.70953    0.42777    0.74977   1.00
O2       0.72807    0.30723    0.79773   1.00
O2       0.57917    0.27193    0.79773   1.00
O2       0.69277    0.42083    0.79773   1.00
O2       0.75367    0.26173    0.77183   1.00
O2       0.66203    0.21307    0.73257   1.00
O2       0.79253    0.35257    0.73297   1.00
O2       0.50807    0.24633    0.77183   1.00
O2       0.56003    0.20747    0.73297   1.00
O2       0.55103    0.33797    0.73257   1.00
O2       0.73827    0.49193    0.77183   1.00
O2       0.78693    0.44897    0.73257   1.00
O2       0.64743    0.43997    0.73297   1.00
C1       0.75277    0.27313    0.79003   1.00
C1       0.52037    0.24723    0.79003   1.00
C1       0.72687    0.47963    0.79003   1.00
C1       0.60003    0.18937    0.72697   1.00
C1       0.81063    0.41067    0.72697   1.00
C1       0.58933    0.39997    0.72697   1.00
O1       0.66667    0.33333    0.40803   1.00
Zn1      0.66667    0.33333    0.37893   1.00
Zn1      0.62380    0.38490    0.41690   1.00
Zn1      0.61510    0.23890    0.41690   1.00
Zn1      0.76110    0.37620    0.41690   1.00
O2       0.64057    0.39473    0.36893   1.00
O2       0.60527    0.24583    0.36893   1.00
O2       0.75417    0.35943    0.36893   1.00
O2       0.59507    0.42033    0.39483   1.00
O2       0.54640    0.32870    0.43410   1.00
O2       0.68590    0.45920    0.43370   1.00
O2       0.57967    0.17473    0.39483   1.00
O2       0.54080    0.22670    0.43370   1.00
O2       0.67130    0.21770    0.43410   1.00
O2       0.82527    0.40493    0.39483   1.00
O2       0.78230    0.45360    0.43410   1.00
O2       0.77330    0.31410    0.43370   1.00
C1       0.60647    0.41943    0.37663   1.00
C1       0.58057    0.18703    0.37663   1.00
C1       0.81297    0.39353    0.37663   1.00
C1       0.52270    0.26670    0.43970   1.00
C1       0.74400    0.47730    0.43970   1.00
C1       0.73330    0.25600    0.43970   1.00
O1       0.33333    0.66667    0.24137   1.00
Zn1      0.33333    0.66667    0.21227   1.00
Zn1      0.28177    0.70953    0.25023   1.00
Zn1      0.42777    0.71823    0.25023   1.00
Zn1      0.29047    0.57223    0.25023   1.00
O2       0.27193    0.69277    0.20227   1.00
O2       0.42083    0.72807    0.20227   1.00
O2       0.30723    0.57917    0.20227   1.00
O2       0.24633    0.73827    0.22817   1.00
O2       0.33797    0.78693    0.26743   1.00
O2       0.20747    0.64743    0.26703   1.00
O2       0.49193    0.75367    0.22817   1.00
O2       0.43997    0.79253    0.26703   1.00
O2       0.44897    0.66203    0.26743   1.00
O2       0.26173    0.50807    0.22817   1.00
O2       0.21307    0.55103    0.26743   1.00
O2       0.35257    0.56003    0.26703   1.00
C1       0.24723    0.72687    0.20997   1.00
C1       0.47963    0.75277    0.20997   1.00
C1       0.27313    0.52037    0.20997   1.00
C1       0.39997    0.81063    0.27303   1.00
C1       0.18937    0.58933    0.27303   1.00
C1       0.41067    0.60003    0.27303   1.00
O1       0.33333    0.66667    0.59197   1.00
Zn1      0.33333    0.66667    0.62107   1.00
Zn1      0.37620    0.61510    0.58310   1.00
Zn1      0.38490    0.76110    0.58310   1.00
Zn1      0.23890    0.62380    0.58310   1.00
O2       0.35943    0.60527    0.63107   1.00
O2       0.39473    0.75417    0.63107   1.00
O2       0.24583    0.64057    0.63107   1.00
O2       0.40493    0.57967    0.60517   1.00
O2       0.45360    0.67130    0.56590   1.00
O2       0.31410    0.54080    0.56630   1.00
O2       0.42033    0.82527    0.60517   1.00
O2       0.45920    0.77330    0.56630   1.00
O2       0.32870    0.78230    0.56590   1.00
O2       0.17473    0.59507    0.60517   1.00
O2       0.21770    0.54640    0.56590   1.00
O2       0.22670    0.68590    0.56630   1.00
C1       0.39353    0.58057    0.62337   1.00
C1       0.41943    0.81297    0.62337   1.00
C1       0.18703    0.60647    0.62337   1.00
C1       0.47730    0.73330    0.56030   1.00
C1       0.25600    0.52270    0.56030   1.00
C1       0.26670    0.74400    0.56030   1.00
O1       0.33333    0.66667    0.09197   1.00
Zn1      0.33333    0.66667    0.12107   1.00
Zn1      0.38490    0.62380    0.08310   1.00
Zn1      0.23890    0.61510    0.08310   1.00
Zn1      0.37620    0.76110    0.08310   1.00
O2       0.39473    0.64057    0.13107   1.00
O2       0.24583    0.60527    0.13107   1.00
O2       0.35943    0.75417    0.13107   1.00
O2       0.42033    0.59507    0.10517   1.00
O2       0.32870    0.54640    0.06590   1.00
O2       0.45920    0.68590    0.06630   1.00
O2       0.17473    0.57967    0.10517   1.00
O2       0.22670    0.54080    0.06630   1.00
O2       0.21770    0.67130    0.06590   1.00
O2       0.40493    0.82527    0.10517   1.00
O2       0.45360    0.78230    0.06590   1.00
O2       0.31410    0.77330    0.06630   1.00
C1       0.41943    0.60647    0.12337   1.00
C1       0.18703    0.58057    0.12337   1.00
C1       0.39353    0.81297    0.12337   1.00
C1       0.26670    0.52270    0.06030   1.00
C1       0.47730    0.74400    0.06030   1.00
C1       0.25600    0.73330    0.06030   1.00
O1       0.33333    0.66667    0.74137   1.00
Zn1      0.33333    0.66667    0.71227   1.00
Zn1      0.29047    0.71823    0.75023   1.00
Zn1      0.28177    0.57223    0.75023   1.00
Zn1      0.42777    0.70953    0.75023   1.00
O2       0.30723    0.72807    0.70227   1.00
O2       0.27193    0.57917    0.70227   1.00
O2       0.42083    0.69277    0.70227   1.00
O2       0.26173    0.75367    0.72817   1.00
O2       0.21307    0.66203    0.76743   1.00
O2       0.35257    0.79253    0.76703   1.00
O2       0.24633    0.50807    0.72817   1.00
O2       0.20747    0.56003    0.76703   1.00
O2       0.33797    0.55103    0.76743   1.00
O2       0.49193    0.73827    0.72817   1.00
O2       0.44897    0.78693    0.76743   1.00
O2       0.43997    0.64743    0.76703   1.00
C1       0.27313    0.75277    0.70997   1.00
C1       0.24723    0.52037    0.70997   1.00
C1       0.47963    0.72687    0.70997   1.00
C1       0.18937    0.60003    0.77303   1.00
C1       0.41067    0.81063    0.77303   1.00
C1       0.39997    0.58933    0.77303   1.00
C5       0.91398    0.96503    0.49279   1.00
H2       0.88340    0.96279    0.50624   1.00
H2       0.88016    0.95469    0.47946   1.00
C5       0.97762    1.03699    0.49118   1.00
H2       0.96446    1.07335    0.48395   1.00
H2       1.01780    1.03487    0.48202   1.00
O_3      0.93772    0.67726    0.47034   1.00
C4       0.85635    0.68651    0.50105   1.00
C3c      0.85524    0.74694    0.49718   1.00
H1       0.83184    0.75158    0.48344   1.00
C3d      0.88622    0.68114    0.51919   1.00
C3       0.88494    0.80244    0.51073   1.00
O2       0.87458    0.85647    0.50717   1.00
C3       0.91699    0.73679    0.53252   1.00
H1       0.94140    0.73118    0.54589   1.00
C2       0.91698    0.79854    0.52874   1.00
C5       0.98021    0.65282    0.47759   1.00
H2       0.97322    0.60743    0.46896   1.00
H2       0.97014    0.63856    0.49395   1.00
C5       1.05364    0.70969    0.47513   1.00
H2       1.06014    0.75566    0.48329   1.00
H2       1.06330    0.72307    0.45873   1.00
C5       1.10342    0.68815    0.48335   1.00
H2       1.09688    0.64199    0.47537   1.00
H2       1.09539    0.67707    0.49988   1.00
H2       1.15685    0.72981    0.48101   1.00
C5       0.83398    0.57411    0.53272   1.00
C5       0.92923    0.90686    0.49564   1.00
H2       0.78823    0.55659    0.52293   1.00
H2       0.82475    0.59278    0.54739   1.00
H2       0.93194    0.88562    0.48062   1.00
H2       0.97970    0.92598    0.50326   1.00
H2       0.99855    1.05826    0.50652   1.00
H2       0.74250    0.42900    0.52899   1.00
H2       0.75083    0.45905    0.55497   1.00
C2       0.77378    0.51897    0.45938   1.00
C3       0.73115    0.52448    0.47397   1.00
O2       0.66821    0.46906    0.47842   1.00
C3       0.84277    0.57151    0.45831   1.00
H1       0.87627    0.56970    0.44696   1.00
C3a      0.75840    0.58067    0.48735   1.00
H1       0.72610    0.58215    0.49918   1.00
C3b      0.87024    0.62618    0.47205   1.00
C4       0.82807    0.63105    0.48675   1.00
O_3      0.89322    0.62484    0.52298   1.00
C5       0.61615    0.47568    0.46881   1.00
H2       0.61643    0.52289    0.47385   1.00
C5       0.54829    0.41316    0.47474   1.00
H2       0.62204    0.47736    0.45200   1.00
H2       0.53429    0.42150    0.49023   1.00
H2       0.55705    0.36905    0.47585   1.00
C5       0.49045    0.39779    0.45959   1.00
H2       0.48603    0.44411    0.45745   1.00
H2       0.44084    0.35571    0.46527   1.00
H2       0.49978    0.38081    0.44459   1.00
C5       0.84450    0.51389    0.53692   1.00
H2       0.88246    0.52819    0.54938   1.00
H2       0.86744    0.50484    0.52315   1.00
C5       0.77727    0.44896    0.54236   1.00
H2       0.78783    0.40828    0.54736   1.00
C5       0.27628    0.27510    0.57697   1.00
H2       0.22865    0.27386    0.57220   1.00
H2       0.31805    0.32820    0.57431   1.00
C5       0.27174    0.25690    0.59975   1.00
H2       0.28438    0.30214    0.60937   1.00
H2       0.30775    0.23837    0.60334   1.00
O_3      0.42664    0.15522    0.50873   1.00
C4       0.31264    0.17009    0.50074   1.00
C3c      0.30972    0.20952    0.51673   1.00
H1       0.35044    0.26158    0.51865   1.00
C3d      0.25858    0.10269    0.49834   1.00
C3       0.25512    0.18243    0.53062   1.00
O2       0.25158    0.22640    0.54432   1.00
C3       0.20479    0.07515    0.51237   1.00
H1       0.16570    0.02247    0.51034   1.00
C2       0.20141    0.11408    0.52876   1.00
C5       0.41485    0.08934    0.50407   1.00
H2       0.45382    0.09074    0.49344   1.00
H2       0.36352    0.05740    0.49708   1.00
C5       0.41829    0.05644    0.52378   1.00
H2       0.38067    0.05678    0.53460   1.00
H2       0.46993    0.08840    0.53052   1.00
C5       0.40356    -0.01661   0.52018   1.00
H2       0.44065    -0.01737   0.50928   1.00
H2       0.35111    -0.04916   0.51411   1.00
H2       0.40778    -0.03928   0.53468   1.00
C5       0.23452    0.06816    0.46539   1.00
C5       0.28388    0.22609    0.56264   1.00
H2       0.26494    0.12115    0.45954   1.00
H2       0.18043    0.05555    0.46714   1.00
H2       0.33892    0.24406    0.55986   1.00
H2       0.26079    0.17411    0.56957   1.00
H2       0.21886    0.21685    0.60403   1.00
H2       0.27153    0.08587    0.42298   1.00
H2       0.17979    0.03960    0.42693   1.00
C2       0.48095    0.24704    0.45942   1.00
C3       0.42595    0.25825    0.45565   1.00
O2       0.41706    0.27824    0.43666   1.00
C3       0.48033    0.21310    0.47751   1.00
H1       0.52250    0.20529    0.48109   1.00
C3a      0.37141    0.23408    0.46958   1.00
H1       0.32789    0.23962    0.46591   1.00
C3b      0.42501    0.18721    0.49100   1.00
C4       0.36989    0.19746    0.48708   1.00
O_3      0.26149    0.06014    0.48380   1.00
C5       0.43985    0.34874    0.43654   1.00
H2       0.41127    0.36179    0.44778   1.00
C5       0.42724    0.36656    0.41517   1.00
H2       0.49533    0.37907    0.44011   1.00
H2       0.37242    0.35134    0.41385   1.00
H2       0.43606    0.33409    0.40430   1.00
C5       0.47304    0.44270    0.40996   1.00
H2       0.46760    0.47444    0.42185   1.00
H2       0.45848    0.45476    0.39505   1.00
H2       0.52779    0.45675    0.40869   1.00
C5       0.23759    0.01962    0.45001   1.00
H2       0.19820    -0.03345   0.45409   1.00
H2       0.28811    0.02277    0.45145   1.00
C5       0.22726    0.03665    0.42815   1.00
H2       0.22269    -0.00377   0.41763   1.00
C5       0.75510    0.04887    0.58354   1.00
H2       0.74577    -0.00329   0.58040   1.00
H2       0.70437    0.04523    0.58282   1.00
C5       0.78637    0.07148    0.60496   1.00
H2       0.74596    0.04981    0.61681   1.00
H2       0.81403    0.12811    0.60608   1.00
O_3      0.86904    0.28133    0.50376   1.00
C4       0.82974    0.14244    0.50076   1.00
C3c      0.79644    0.11246    0.51906   1.00
H1       0.74920    0.11090    0.52280   1.00
C3d      0.89073    0.14307    0.49604   1.00
C3       0.82376    0.08502    0.53288   1.00
O2       0.78427    0.04922    0.54924   1.00
C3       0.91874    0.11696    0.50995   1.00
H1       0.96684    0.12076    0.50599   1.00
C2       0.88611    0.08713    0.52862   1.00
C5       0.93424    0.32464    0.49546   1.00
H2       0.93333    0.35973    0.48376   1.00
H2       0.95556    0.29456    0.48835   1.00
C5       0.98068    0.36723    0.51266   1.00
H2       0.98008    0.33216    0.52461   1.00
H2       0.95926    0.39752    0.51951   1.00
C5       1.05356    0.41426    0.50505   1.00
H2       1.05448    0.44910    0.49300   1.00
H2       1.07586    0.38398    0.49884   1.00
H2       1.08640    0.44605    0.51774   1.00
C5       0.90482    0.13143    0.46230   1.00
C5       0.80026    0.09315    0.56612   1.00
H2       0.85052    0.11416    0.45882   1.00
H2       0.91010    0.08568    0.46510   1.00
H2       0.78889    0.13466    0.56262   1.00
H2       0.85532    0.11789    0.57046   1.00
H2       0.82233    0.05254    0.60847   1.00
H2       0.86853    0.13413    0.42045   1.00
H2       0.90439    0.07901    0.42459   1.00
C2       0.75331    0.23357    0.45917   1.00
C3       0.73012    0.16304    0.45806   1.00
O2       0.69682    0.12638    0.44095   1.00
C3       0.79927    0.27194    0.47485   1.00
H1       0.81661    0.32567    0.47644   1.00
C3a      0.75437    0.13310    0.47211   1.00
H1       0.73916    0.07989    0.47035   1.00
C3b      0.82497    0.24247    0.48840   1.00
C4       0.80269    0.17257    0.48708   1.00
O_3      0.92813    0.17652    0.47897   1.00
C5       0.62591    0.08836    0.44446   1.00
H2       0.61359    0.05191    0.45732   1.00
C5       0.59297    0.04847    0.42501   1.00
H2       0.60507    0.12258    0.44797   1.00
H2       0.59916    0.00271    0.42464   1.00
H2       0.62274    0.08115    0.41198   1.00
C5       0.51709    0.02749    0.42308   1.00
H2       0.48921    -0.00044   0.43695   1.00
H2       0.49353    -0.00617   0.40968   1.00
H2       0.51066    0.07291    0.42084   1.00
C5       0.94814    0.16993    0.44403   1.00
H2       1.00003    0.17680    0.44607   1.00
H2       0.95407    0.22183    0.44391   1.00
C5       0.91614    0.13293    0.42397   1.00
H2       0.95230    0.15852    0.41125   1.00
C5       0.96654    0.91920    0.00778   1.00
H2       0.96489    0.88812    -0.00546   1.00
H2       0.95672    0.88627    0.02130   1.00
C5       1.03795    0.98368    0.00921   1.00
H2       1.07489    0.97175    0.01666   1.00
H2       1.03503    1.02394    0.01809   1.00
O_3      0.67558    0.93847    0.02907   1.00
C4       0.68652    0.85634    -0.00105   1.00
C3c      0.74753    0.85662    0.00304   1.00
H1       0.75263    0.83431    0.01695   1.00
C3d      0.68057    0.88479    -0.01940   1.00
C3       0.80301    0.88632    -0.01052   1.00
O2       0.85774    0.87730    -0.00670   1.00
C3       0.73618    0.91557    -0.03275   1.00
H1       0.73008    0.93888    -0.04630   1.00
C2       0.79850    0.91696    -0.02875   1.00
C5       0.65011    0.97966    0.02145   1.00
H2       0.60442    0.97236    0.02997   1.00
H2       0.63594    0.96850    0.00511   1.00
C5       0.70612    1.05359    0.02361   1.00
H2       0.75241    1.06045    0.01557   1.00
H2       0.71940    1.06434    0.03999   1.00
C5       0.68344    1.10201    0.01498   1.00
H2       0.63696    1.09510    0.02285   1.00
H2       0.67244    1.09291    -0.00153   1.00
H2       0.72447    1.15584    0.01710   1.00
C5       0.57355    0.83026    -0.03295   1.00
C5       0.90753    0.93302    0.00463   1.00
H2       0.55672    0.78517    -0.02291   1.00
H2       0.59260    0.82064    -0.04749   1.00
H2       0.88602    0.93615    0.01956   1.00
H2       0.92589    0.98293    -0.00327   1.00
H2       1.05906    1.00394    -0.00619   1.00
H2       0.42881    0.73711    -0.02910   1.00
H2       0.45903    0.74446    -0.05503   1.00
C2       0.51890    0.77373    0.04060   1.00
C3       0.52530    0.73080    0.02631   1.00
O2       0.47056    0.66717    0.02210   1.00
C3       0.57062    0.84311    0.04138   1.00
H1       0.56813    0.87689    0.05249   1.00
C3a      0.58152    0.75811    0.01295   1.00
H1       0.58365    0.72549    0.00135   1.00
C3b      0.62530    0.87058    0.02765   1.00
C4       0.63104    0.82808    0.01325   1.00
O_3      0.62361    0.89043    -0.02343   1.00
C5       0.47822    0.61629    0.03209   1.00
H2       0.52588    0.61719    0.02720   1.00
C5       0.41641    0.54757    0.02640   1.00
H2       0.47976    0.62310    0.04886   1.00
H2       0.42513    0.53299    0.01103   1.00
H2       0.37172    0.55534    0.02508   1.00
C5       0.40196    0.49086    0.04189   1.00
H2       0.44880    0.48749    0.04421   1.00
H2       0.36045    0.44061    0.03640   1.00
H2       0.38462    0.50062    0.05675   1.00
C5       0.51258    0.83928    -0.03742   1.00
H2       0.52631    0.87644    -0.05009   1.00
H2       0.50298    0.86260    -0.02385   1.00
C5       0.44833    0.77116    -0.04264   1.00
H2       0.40708    0.78056    -0.04785   1.00
C5       0.27501    0.27635    -0.07699   1.00
H2       0.27381    0.22874    -0.07223   1.00
H2       0.32811    0.31814    -0.07434   1.00
C5       0.25677    0.27180    -0.09978   1.00
H2       0.30200    0.28446    -0.10940   1.00
H2       0.23821    0.30779    -0.10335   1.00
O_3      0.15514    0.42660    -0.00871   1.00
C4       0.17009    0.31264    -0.00074   1.00
C3c      0.20951    0.30974    -0.01674   1.00
H1       0.26155    0.35048    -0.01866   1.00
C3d      0.10270    0.25855    0.00167   1.00
C3       0.18241    0.25514    -0.03062   1.00
O2       0.22638    0.25163    -0.04434   1.00
C3       0.07516    0.20476    -0.01236   1.00
H1       0.02250    0.16565    -0.01032   1.00
C2       0.11408    0.20140    -0.02876   1.00
C5       0.08925    0.41477    -0.00404   1.00
H2       0.09064    0.45374    0.00659   1.00
H2       0.05734    0.36344    0.00295   1.00
C5       0.05630    0.41819    -0.02375   1.00
H2       0.05664    0.38058    -0.03457   1.00
H2       0.08823    0.46984    -0.03048   1.00
C5       -0.01675   0.40342    -0.02013   1.00
H2       -0.01751   0.44050    -0.00922   1.00
H2       -0.04927   0.35097    -0.01406   1.00
H2       -0.03946   0.40763    -0.03463   1.00
C5       0.06824    0.23448    0.03463   1.00
C5       0.22601    0.28392    -0.06266   1.00
H2       0.12124    0.26492    0.04047   1.00
H2       0.05566    0.18040    0.03287   1.00
H2       0.24396    0.33895    -0.05987   1.00
H2       0.17402    0.26081    -0.06957   1.00
H2       0.21673    0.21891    -0.10405   1.00
H2       0.08601    0.27149    0.07703   1.00
H2       0.03977    0.17975    0.07308   1.00
C2       0.24703    0.48095    0.04058   1.00
C3       0.25829    0.42598    0.04434   1.00
O2       0.27833    0.41709    0.06332   1.00
C3       0.21305    0.48031    0.02250   1.00
H1       0.20521    0.52246    0.01892   1.00
C3a      0.23412    0.37144    0.03042   1.00
H1       0.23969    0.32793    0.03408   1.00
C3b      0.18717    0.42499    0.00901   1.00
C4       0.19746    0.36989    0.01292   1.00
O_3      0.06017    0.26144    0.01622   1.00
C5       0.34883    0.43992    0.06344   1.00
H2       0.36189    0.41136    0.05219   1.00
C5       0.36670    0.42733    0.08480   1.00
H2       0.37914    0.49540    0.05987   1.00
H2       0.35152    0.37251    0.08612   1.00
H2       0.33424    0.43612    0.09568   1.00
C5       0.44285    0.47316    0.09000   1.00
H2       0.47458    0.46774    0.07810   1.00
H2       0.45495    0.45861    0.10490   1.00
H2       0.45687    0.52790    0.09127   1.00
C5       0.01971    0.23752    0.05001   1.00
H2       -0.03336   0.19811    0.04594   1.00
H2       0.02283    0.28803    0.04858   1.00
C5       0.03679    0.22721    0.07187   1.00
H2       -0.00362   0.22262    0.08239   1.00
C5       0.04887    0.75510    -0.08354   1.00
H2       -0.00329   0.74577    -0.08040   1.00
H2       0.04523    0.70437    -0.08282   1.00
C5       0.07148    0.78637    -0.10496   1.00
H2       0.04981    0.74596    -0.11681   1.00
H2       0.12811    0.81403    -0.10608   1.00
O_3      0.28133    0.86904    -0.00376   1.00
C4       0.14244    0.82974    -0.00076   1.00
C3c      0.11246    0.79644    -0.01906   1.00
H1       0.11090    0.74920    -0.02280   1.00
C3d      0.14307    0.89073    0.00396   1.00
C3       0.08502    0.82376    -0.03288   1.00
O2       0.04922    0.78427    -0.04924   1.00
C3       0.11696    0.91874    -0.00995   1.00
H1       0.12076    0.96684    -0.00599   1.00
C2       0.08713    0.88611    -0.02862   1.00
C5       0.32464    0.93424    0.00454   1.00
H2       0.35973    0.93333    0.01624   1.00
H2       0.29456    0.95556    0.01165   1.00
C5       0.36723    0.98068    -0.01266   1.00
H2       0.33216    0.98008    -0.02461   1.00
H2       0.39752    0.95926    -0.01951   1.00
C5       0.41426    1.05356    -0.00505   1.00
H2       0.44910    1.05448    0.00700   1.00
H2       0.38398    1.07586    0.00116   1.00
H2       0.44605    1.08640    -0.01774   1.00
C5       0.13143    0.90482    0.03770   1.00
C5       0.09315    0.80026    -0.06612   1.00
H2       0.11416    0.85052    0.04118   1.00
H2       0.08568    0.91010    0.03490   1.00
H2       0.13466    0.78889    -0.06262   1.00
H2       0.11789    0.85532    -0.07046   1.00
H2       0.05254    0.82233    -0.10847   1.00
H2       0.13413    0.86853    0.07955   1.00
H2       0.07901    0.90439    0.07541   1.00
C2       0.23357    0.75331    0.04083   1.00
C3       0.16304    0.73012    0.04194   1.00
O2       0.12638    0.69682    0.05905   1.00
C3       0.27194    0.79927    0.02515   1.00
H1       0.32567    0.81661    0.02356   1.00
C3a      0.13310    0.75437    0.02789   1.00
H1       0.07989    0.73916    0.02965   1.00
C3b      0.24247    0.82497    0.01160   1.00
C4       0.17257    0.80269    0.01292   1.00
O_3      0.17652    0.92813    0.02103   1.00
C5       0.08836    0.62591    0.05554   1.00
H2       0.05191    0.61359    0.04268   1.00
C5       0.04847    0.59297    0.07499   1.00
H2       0.12258    0.60507    0.05203   1.00
H2       0.00271    0.59916    0.07536   1.00
H2       0.08115    0.62274    0.08802   1.00
C5       0.02749    0.51709    0.07692   1.00
H2       -0.00044   0.48921    0.06305   1.00
H2       -0.00617   0.49353    0.09032   1.00
H2       0.07291    0.51066    0.07916   1.00
C5       0.16993    0.94814    0.05597   1.00
H2       0.17680    1.00003    0.05393   1.00
H2       0.22183    0.95407    0.05609   1.00
C5       0.13293    0.91614    0.07603   1.00
H2       0.15852    0.95230    0.08875   1.00
C5       0.08003    0.30110    0.41361   1.00
H2       0.11118    0.27788    0.40912   1.00
H2       0.11283    0.35677    0.41100   1.00
C5       0.01543    0.27193    0.40017   1.00
H2       0.02717    0.29852    0.38527   1.00
H2       -0.02484   0.27809    0.40792   1.00
O_3      0.06143    0.36054    0.51636   1.00
C4       0.14366    0.31299    0.49913   1.00
C3c      0.14318    0.32325    0.47813   1.00
H1       0.16532    0.37451    0.47222   1.00
C3d      0.11542    0.24584    0.50649   1.00
C3       0.11348    0.26796    0.46451   1.00
O2       0.12230    0.28215    0.44408   1.00
C3       0.08465    0.19062    0.49301   1.00
H1       0.06150    0.13997    0.49943   1.00
C2       0.08305    0.20006    0.47175   1.00
C5       0.02043    0.31881    0.53238   1.00
H2       0.02778    0.34827    0.54662   1.00
H2       0.03175    0.27715    0.53570   1.00
C5       -0.05357   0.28751    0.52585   1.00
H2       -0.06048   0.25967    0.51132   1.00
H2       -0.06448   0.32953    0.52277   1.00
C5       -0.10179   0.23925    0.54218   1.00
H2       -0.09482   0.26661    0.55678   1.00
H2       -0.09253   0.19598    0.54477   1.00
H2       -0.15568   0.21804    0.53733   1.00
C5       0.17029    0.23576    0.53414   1.00
C5       0.06642    0.28659    0.43633   1.00
H2       0.21528    0.28744    0.53192   1.00
H2       0.17997    0.19777    0.52628   1.00
H2       0.06323    0.32896    0.44392   1.00
H2       0.01660    0.23873    0.43881   1.00
H2       -0.00474   0.21673    0.39677   1.00
H2       0.26369    0.29609    0.56770   1.00
H2       0.25648    0.21640    0.55917   1.00
C2       0.22628    0.47855    0.54150   1.00
C3       0.26924    0.45792    0.53222   1.00
O2       0.33298    0.47818    0.54014   1.00
C3       0.15685    0.44558    0.53568   1.00
H1       0.12303    0.46137    0.54211   1.00
C3a      0.24193    0.40434    0.51793   1.00
H1       0.27460    0.38655    0.51183   1.00
C3b      0.12938    0.39088    0.52195   1.00
C4       0.17192    0.36973    0.51298   1.00
O_3      0.10999    0.23273    0.52711   1.00
C5       0.38368    0.53195    0.52851   1.00
H2       0.38269    0.51617    0.51241   1.00
C5       0.45253    0.55059    0.53801   1.00
H2       0.37673    0.57732    0.52877   1.00
H2       0.46719    0.51285    0.53285   1.00
H2       0.44490    0.54401    0.55473   1.00
C5       0.50907    0.62374    0.53284   1.00
H2       0.51228    0.63101    0.51613   1.00
H2       0.55941    0.63341    0.53856   1.00
H2       0.49924    0.66259    0.54014   1.00
C5       0.16149    0.21981    0.55674   1.00
H2       0.12446    0.16445    0.55872   1.00
H2       0.13812    0.24806    0.56375   1.00
C5       0.22974    0.23958    0.56717   1.00
H2       0.22051    0.22082    0.58308   1.00
C5       0.72777    0.72030    0.42453   1.00
H2       0.73721    0.76492    0.41516   1.00
H2       0.67305    0.68191    0.42239   1.00
C5       0.77337    0.69187    0.41696   1.00
H2       0.75027    0.65851    0.40347   1.00
H2       0.78008    0.66188    0.42920   1.00
O_3      0.67221    0.73250    0.52790   1.00
C4       0.68679    0.83056    0.49905   1.00
C3c      0.68149    0.80046    0.48001   1.00
H1       0.63410    0.75598    0.47563   1.00
C3d      0.74868    0.88907    0.50435   1.00
C3       0.73710    0.82641    0.46650   1.00
O2       0.72563    0.79949    0.44723   1.00
C3       0.80454    0.91426    0.49109   1.00
H1       0.85169    0.95778    0.49611   1.00
C2       0.80029    0.88400    0.47187   1.00
C5       0.71654    0.76144    0.54461   1.00
H2       0.68866    0.74744    0.55935   1.00
H2       0.74601    0.81820    0.54349   1.00
C5       0.76588    0.73439    0.54445   1.00
H2       0.79237    0.74670    0.52950   1.00
H2       0.73597    0.67775    0.54576   1.00
C5       0.81770    0.76532    0.56179   1.00
H2       0.79157    0.75363    0.57675   1.00
H2       0.84921    0.82165    0.56010   1.00
H2       0.85237    0.74381    0.56170   1.00
C5       0.73581    0.96554    0.52362   1.00
C5       0.74070    0.74600    0.44646   1.00
H2       0.68039    0.94094    0.52021   1.00
H2       0.76433    1.00719    0.51239   1.00
H2       0.70665    0.70419    0.45702   1.00
H2       0.79454    0.76305    0.45093   1.00
H2       0.82453    0.73388    0.41204   1.00
H2       0.65343    0.99936    0.54922   1.00
H2       0.72088    1.07322    0.53627   1.00
C2       0.52208    0.74953    0.54170   1.00
C3       0.52635    0.79593    0.52668   1.00
O2       0.48892    0.82854    0.52850   1.00
C3       0.57123    0.72834    0.54159   1.00
H1       0.56834    0.69154    0.55256   1.00
C3a      0.57991    0.82121    0.51239   1.00
H1       0.58472    0.85963    0.50172   1.00
C3b      0.62567    0.75523    0.52777   1.00
C4       0.63045    0.80215    0.51304   1.00
O_3      0.75818    0.91751    0.52349   1.00
C5       0.43128    0.79763    0.51572   1.00
H2       0.44641    0.79984    0.49950   1.00
C5       0.39333    0.83723    0.51835   1.00
H2       0.39697    0.74325    0.51999   1.00
H2       0.41972    0.88473    0.50915   1.00
H2       0.39880    0.85347    0.53452   1.00
C5       0.31741    0.79530    0.51241   1.00
H2       0.31278    0.77500    0.49679   1.00
H2       0.29302    0.82748    0.51289   1.00
H2       0.28832    0.75210    0.52318   1.00
C5       0.74840    0.99630    0.54480   1.00
H2       0.80429    1.03063    0.54683   1.00
H2       0.73213    0.95425    0.55604   1.00
C5       0.70961    1.03505    0.54846   1.00
H2       0.72548    1.06264    0.56317   1.00
C5       0.27750    1.00327    0.42379   1.00
H2       0.23222    0.96808    0.41465   1.00
H2       0.31521    0.98608    0.42158   1.00
C5       0.30652    1.07706    0.41592   1.00
H2       0.33910    1.08621    0.40231   1.00
H2       0.33746    1.11415    0.42797   1.00
O_3      0.26947    0.94017    0.52737   1.00
C4       0.16944    0.85624    0.49905   1.00
C3c      0.19873    0.87982    0.47986   1.00
H1       0.24258    0.87595    0.47535   1.00
C3d      0.11173    0.86085    0.50451   1.00
C3       0.17280    0.90948    0.46634   1.00
O2       0.19879    0.92368    0.44696   1.00
C3       0.08659    0.89155    0.49125   1.00
H1       0.04374    0.89616    0.49638   1.00
C2       0.11606    0.91633    0.47187   1.00
C5       0.24186    0.95697    0.54412   1.00
H2       0.25625    0.94345    0.55885   1.00
H2       0.18507    0.93032    0.54325   1.00
C5       0.26992    1.03352    0.54366   1.00
H2       0.25719    1.04729    0.52872   1.00
H2       0.32658    1.05959    0.54473   1.00
C5       0.24045    1.05591    0.56103   1.00
H2       0.25255    1.04189    0.57600   1.00
H2       0.18410    1.03173    0.55958   1.00
H2       0.26268    1.11218    0.56072   1.00
C5       0.03541    0.77298    0.52427   1.00
C5       0.25290    0.99188    0.44583   1.00
H2       0.05913    0.74135    0.52087   1.00
H2       -0.00667   0.75989    0.51320   1.00
H2       0.29502    0.99953    0.45624   1.00
H2       0.23682    1.02946    0.45025   1.00
H2       0.26476    1.08673    0.41110   1.00
H2       0.00126    0.65764    0.55029   1.00
H2       -0.07274   0.65176    0.53758   1.00
C2       0.25056    0.77262    0.54170   1.00
C3       0.20311    0.73018    0.52693   1.00
O2       0.16973    0.66022    0.52905   1.00
C3       0.27271    0.84316    0.54133   1.00
H1       0.31031    0.87729    0.55209   1.00
C3a      0.17779    0.75842    0.51264   1.00
H1       0.13861    0.72465    0.50218   1.00
C3b      0.24580    0.87071    0.52751   1.00
C4       0.19785    0.82829    0.51304   1.00
O_3      0.08417    0.84316    0.52379   1.00
C5       0.19931    0.63214    0.51625   1.00
H2       0.19651    0.64441    0.50000   1.00
C5       0.15891    0.55475    0.51922   1.00
H2       0.25377    0.65169    0.52031   1.00
H2       0.11100    0.53380    0.51022   1.00
H2       0.14344    0.54494    0.53547   1.00
C5       0.19965    0.51952    0.51325   1.00
H2       0.21925    0.53422    0.49753   1.00
H2       0.16684    0.46305    0.51399   1.00
H2       0.24325    0.53355    0.52385   1.00
C5       0.00567    0.75619    0.54558   1.00
H2       -0.02792   0.77859    0.54766   1.00
H2       0.04835    0.78204    0.55663   1.00
C5       -0.03384   0.67885    0.54958   1.00
H2       -0.06065   0.66820    0.56440   1.00
C5       0.05250    0.13254    0.99936   1.00
H2       0.02196    0.07612    1.00052   1.00
H2       0.05460    0.14450    0.98295   1.00
C5       0.01660    0.16460    1.01128   1.00
H2       -0.02501   0.16385    1.00208   1.00
H2       0.05408    0.21827    1.01537   1.00
O_3      0.40608    0.28348    1.00160   1.00
C4       0.31299    0.14234    1.00086   1.00
C3c      0.24957    0.13550    0.99587   1.00
H1       0.24243    0.15226    0.98119   1.00
C3d      0.32093    0.11929    1.01997   1.00
C3       0.19491    0.10803    1.00974   1.00
O2       0.13217    0.09526    1.00291   1.00
C3       0.26701    0.09311    1.03395   1.00
H1       0.27626    0.07833    1.04867   1.00
C2       0.20278    0.08652    1.02923   1.00
C5       0.45377    0.30267    1.01756   1.00
H2       0.50742    0.33163    1.01203   1.00
H2       0.44706    0.25708    1.02605   1.00
C5       0.44168    0.34811    1.03189   1.00
H2       0.38751    0.31987    1.03698   1.00
H2       0.44913    0.39375    1.02330   1.00
C5       0.49000    0.36942    1.05016   1.00
H2       0.54418    0.39724    1.04518   1.00
H2       0.48096    0.32405    1.05914   1.00
H2       0.48144    0.40382    1.06023   1.00
C5       0.39134    0.07431    1.01977   1.00
C5       0.12368    0.15182    1.00709   1.00
H2       0.39011    0.07031    1.00294   1.00
H2       0.35061    0.02499    1.02616   1.00
H2       0.16331    0.19793    0.99897   1.00
H2       0.12832    0.16444    1.02363   1.00
H2       -0.00790   0.13511    1.02540   1.00
H2       0.49460    0.05472    1.00034   1.00
H2       0.44192    -0.01367   1.01783   1.00
C2       0.48339    0.23248    0.96026   1.00
C3       0.43534    0.16220    0.95890   1.00
O2       0.45077    0.11902    0.94836   1.00
C3       0.47182    0.27223    0.97455   1.00
H1       0.50670    0.32649    0.97561   1.00
C3a      0.37849    0.13318    0.97203   1.00
H1       0.34429    0.07865    0.97159   1.00
C3b      0.41642    0.24284    0.98802   1.00
C4       0.36927    0.17278    0.98687   1.00
O_3      0.38375    0.12958    1.02620   1.00
C5       0.41870    0.10353    0.92920   1.00
H2       0.36210    0.07834    0.93073   1.00
C5       0.43729    0.05479    0.91866   1.00
H2       0.43695    0.15052    0.91986   1.00
H2       0.40399    0.00255    0.92479   1.00
H2       0.49045    0.07004    0.92316   1.00
C5       0.43097    0.05504    0.89537   1.00
H2       0.37921    0.04504    0.89120   1.00
H2       0.43926    0.01500    0.88839   1.00
H2       0.47022    0.10483    0.88873   1.00
C5       0.46037    0.08720    1.02727   1.00
H2       0.45746    0.07947    1.04400   1.00
H2       0.49863    0.14177    1.02446   1.00
C5       0.48249    0.04079    1.01666   1.00
H2       0.52929    0.04649    1.02396   1.00
C5       0.70365    0.74984    1.06736   1.00
H2       0.74095    0.75315    1.07889   1.00
H2       0.65921    0.69743    1.06862   1.00
C5       0.68208    0.80328    1.07217   1.00
H2       0.64209    0.78419    1.08415   1.00
H2       0.66190    0.81486    1.05826   1.00
O_3      0.75332    0.68580    0.96739   1.00
C4       0.83045    0.68669    1.00099   1.00
C3c      0.79375    0.68626    1.01821   1.00
H1       0.74399    0.64271    1.02116   1.00
C3d      0.89561    0.74352    0.99757   1.00
C3       0.81992    0.74199    1.03168   1.00
O2       0.78494    0.73448    1.04945   1.00
C3       0.92126    0.79964    1.01074   1.00
H1       0.97040    0.84307    1.00711   1.00
C2       0.88449    0.80036    1.02811   1.00
C5       0.79431    0.72821    0.95147   1.00
H2       0.78398    0.70021    0.93681   1.00
H2       0.84962    0.75080    0.95505   1.00
C5       0.77802    0.78524    0.94895   1.00
H2       0.78650    0.81202    0.96376   1.00
H2       0.72284    0.76214    0.94519   1.00
C5       0.82231    0.83532    0.93235   1.00
H2       0.81445    0.80883    0.91755   1.00
H2       0.87730    0.86019    0.93643   1.00
H2       0.80863    0.87579    0.93042   1.00
C5       0.97112    0.71720    0.98314   1.00
C5       0.73900    0.75904    1.04686   1.00
H2       0.93836    0.66190    0.98644   1.00
H2       1.00801    0.74143    0.99587   1.00
H2       0.70075    0.72894    1.03491   1.00
H2       0.76521    0.81381    1.04214   1.00
H2       0.72593    0.85150    1.07817   1.00
H2       0.99984    0.62310    0.96173   1.00
H2       1.07125    0.68392    0.97704   1.00
C2       0.75040    0.52220    0.95826   1.00
C3       0.78584    0.51984    0.97558   1.00
O2       0.80985    0.47464    0.97648   1.00
C3       0.73938    0.57810    0.95602   1.00
H1       0.71091    0.58053    0.94321   1.00
C3a      0.81072    0.57351    0.98982   1.00
H1       0.84109    0.57288    1.00239   1.00
C3b      0.76606    0.63245    0.96988   1.00
C4       0.80218    0.63055    0.98692   1.00
O_3      0.93157    0.74869    0.98006   1.00
C5       0.76673    0.41819    0.98873   1.00
H2       0.76369    0.43445    1.00450   1.00
C5       0.79730    0.37130    0.98924   1.00
H2       0.71423    0.38996    0.98228   1.00
H2       0.84004    0.39228    1.00036   1.00
H2       0.82026    0.37417    0.97407   1.00
C5       0.74444    0.29688    0.99455   1.00
H2       0.71822    0.29553    1.00894   1.00
H2       0.76958    0.26571    0.99646   1.00
H2       0.70586    0.27230    0.98220   1.00
C5       1.01060    0.72525    0.96367   1.00
H2       1.05154    0.77957    0.96227   1.00
H2       0.97537    0.71419    0.95061   1.00
C5       1.04076    0.67757    0.96314   1.00
H2       1.07494    0.68981    0.94980   1.00
C5       1.00275    0.27723    1.07630   1.00
H2       0.96757    0.23186    1.08541   1.00
H2       0.98546    0.31485    1.07851   1.00
C5       1.07651    0.30632    1.08420   1.00
H2       1.08552    0.33879    1.09783   1.00
H2       1.11365    0.33738    1.07218   1.00
O_3      0.94022    0.26971    0.97270   1.00
C4       0.85624    0.16943    1.00095   1.00
C3c      0.87967    0.19863    1.02016   1.00
H1       0.87568    0.24240    1.02468   1.00
C3d      0.86100    0.11183    0.99547   1.00
C3       0.90933    0.17270    1.03368   1.00
O2       0.92338    0.19858    1.05308   1.00
C3       0.89170    0.08669    1.00874   1.00
H1       0.89643    0.04392    1.00358   1.00
C2       0.91634    0.11606    1.02813   1.00
C5       0.95719    0.24226    0.95594   1.00
H2       0.94372    0.25670    0.94121   1.00
H2       0.93063    0.18547    0.95678   1.00
C5       1.03376    0.27044    0.95643   1.00
H2       1.04748    0.25766    0.97138   1.00
H2       1.05975    0.32710    0.95539   1.00
C5       1.05634    0.24115    0.93906   1.00
H2       1.04237    0.25331    0.92409   1.00
H2       1.03224    0.18480    0.94048   1.00
H2       1.11262    0.26347    0.93940   1.00
C5       0.77332    0.03553    0.97566   1.00
C5       0.99153    0.25277    1.05425   1.00
H2       0.74159    0.05915    0.97905   1.00
H2       0.76023    -0.00660   0.98670   1.00
H2       0.99917    0.29492    1.04386   1.00
H2       1.02921    0.23680    1.04984   1.00
H2       1.08624    0.26459    1.08901   1.00
H2       0.65808    0.00134    0.94958   1.00
H2       0.65227    -0.07267   0.96226   1.00
C2       0.77263    0.25058    0.95830   1.00
C3       0.73016    0.20300    0.97304   1.00
O2       0.66020    0.16952    0.97088   1.00
C3       0.84320    0.27283    0.95871   1.00
H1       0.87734    0.31053    0.94797   1.00
C3a      0.75839    0.17767    0.98733   1.00
H1       0.72460    0.13840    0.99776   1.00
C3b      0.87074    0.24592    0.97252   1.00
C4       0.82829    0.19785    0.98696   1.00
O_3      0.84346    0.08438    0.97617   1.00
C5       0.63196    0.19894    0.98368   1.00
H2       0.64416    0.19607    0.99994   1.00
C5       0.55459    0.15845    0.98067   1.00
H2       0.65144    0.25341    0.97965   1.00
H2       0.53367    0.11049    0.98965   1.00
H2       0.54490    0.14307    0.96442   1.00
C5       0.51921    0.19904    0.98664   1.00
H2       0.53380    0.21855    1.00238   1.00
H2       0.46275    0.16615    0.98588   1.00
H2       0.53323    0.24269    0.97606   1.00
C5       0.75670    0.00592    0.95432   1.00
H2       0.77920    -0.02759   0.95224   1.00
H2       0.78254    0.04867    0.94330   1.00
C5       0.67938    -0.03368   0.95028   1.00
H2       0.66886    -0.06039   0.93545   1.00
C5       0.64943    1.05027    0.91282   1.00
H2       0.69804    1.09642    0.90855   1.00
H2       0.65827    1.00658    0.91086   1.00
C5       0.63246    1.05600    0.93522   1.00
H2       0.66146    1.04112    0.94565   1.00
H2       0.57689    1.02230    0.93800   1.00
O_3      0.39118    0.91127    0.84048   1.00
C4       0.52416    1.02067    0.83408   1.00
C3c      0.56242    1.02127    0.85092   1.00
H1       0.57051    0.97870    0.85351   1.00
C3d      0.51503    1.07708    0.83082   1.00
C3       0.58990    1.07592    0.86479   1.00
O2       0.63359    1.07682    0.87945   1.00
C3       0.54122    1.13098    0.84481   1.00
H1       0.53086    1.17200    0.84206   1.00
C2       0.57940    1.13206    0.86204   1.00
C5       0.34046    0.92663    0.83453   1.00
H2       0.30364    0.88870    0.82353   1.00
H2       0.36361    0.97820    0.82743   1.00
C5       0.30163    0.92550    0.85346   1.00
H2       0.33870    0.96201    0.86468   1.00
H2       0.27822    0.87362    0.86031   1.00
C5       0.24682    0.94415    0.84845   1.00
H2       0.20990    0.90818    0.83714   1.00
H2       0.27037    0.99685    0.84226   1.00
H2       0.21799    0.94158    0.86239   1.00
C5       0.51227    1.10214    0.79744   1.00
C5       0.59681    1.04575    0.89738   1.00
H2       0.53325    1.06941    0.79242   1.00
H2       0.55538    1.15530    0.79951   1.00
H2       0.55810    0.99134    0.89439   1.00
H2       0.56909    1.07132    0.90342   1.00
H2       0.64735    1.10968    0.93920   1.00
H2       0.49889    1.06481    0.75510   1.00
H2       0.54778    1.15648    0.75904   1.00
C2       0.43285    0.85262    0.79266   1.00
C3       0.50089    0.90515    0.78974   1.00
O2       0.53274    0.91236    0.77133   1.00
C3       0.39747    0.85545    0.80999   1.00
H1       0.34593    0.81513    0.81294   1.00
C3a      0.53112    0.95957    0.80372   1.00
H1       0.58187    1.00133    0.80065   1.00
C3b      0.42692    0.91073    0.82350   1.00
C4       0.49419    0.96344    0.82041   1.00
O_3      0.47352    1.07669    0.81535   1.00
C5       0.57745    0.88602    0.77248   1.00
H2       0.61744    0.91301    0.78429   1.00
C5       0.61144    0.89693    0.75168   1.00
H2       0.54910    0.83049    0.77609   1.00
H2       0.65333    0.95092    0.75062   1.00
H2       0.57294    0.89025    0.74003   1.00
C5       0.63886    0.84791    0.74762   1.00
H2       0.67301    0.85138    0.76024   1.00
H2       0.66814    0.86113    0.73316   1.00
H2       0.59639    0.79404    0.74607   1.00
C5       0.46495    1.10196    0.78101   1.00
H2       0.45343    1.14336    0.78437   1.00
H2       0.41580    1.05286    0.78197   1.00
C5       0.49592    1.11071    0.75968   1.00
H2       0.46343    1.11748    0.74836   1.00
C5       -0.03958   0.57828    0.91686   1.00
H2       -0.08242   0.58760    0.91372   1.00
H2       0.00750    0.62902    0.91613   1.00
C5       -0.04822   0.54704    0.93828   1.00
H2       -0.02950   0.58746    0.95013   1.00
H2       -0.01925   0.51939    0.93941   1.00
O_3      0.07899    0.46432    0.83710   1.00
C4       -0.02063   0.50359    0.83409   1.00
C3c      -0.01732   0.53690    0.85238   1.00
H1       0.02836    0.58415    0.85612   1.00
C3d      -0.08098   0.44259    0.82937   1.00
C3       -0.07208   0.50958    0.86621   1.00
O2       -0.06840   0.54908    0.88256   1.00
C3       -0.13509   0.41458    0.84328   1.00
H1       -0.17940   0.36647    0.83933   1.00
C2       -0.13231   0.44722    0.86195   1.00
C5       0.05711    0.39912    0.82880   1.00
H2       0.09311    0.40003    0.81710   1.00
H2       0.00571    0.37779    0.82170   1.00
C5       0.05327    0.35270    0.84601   1.00
H2       0.01879    0.35330    0.85796   1.00
H2       0.10498    0.37414    0.85286   1.00
C5       0.02744    0.27981    0.83840   1.00
H2       0.06137    0.27890    0.82636   1.00
H2       -0.02514   0.25750    0.83220   1.00
H2       0.02640    0.24700    0.85110   1.00
C5       -0.10671   0.42846    0.79563   1.00
C5       -0.04045   0.53311    0.89945   1.00
H2       -0.06968   0.48277    0.79215   1.00
H2       -0.15775   0.42317    0.79843   1.00
H2       0.01244    0.54450    0.89595   1.00
H2       -0.07076   0.47806    0.90379   1.00
H2       -0.10313   0.51107    0.94180   1.00
H2       -0.06773   0.46472    0.75378   1.00
H2       -0.15870   0.42885    0.75792   1.00
C2       0.14693    0.58002    0.79250   1.00
C3       0.09958    0.60320    0.79139   1.00
O2       0.09620    0.63647    0.77428   1.00
C3       0.13935    0.53408    0.80819   1.00
H1       0.17575    0.51676    0.80977   1.00
C3a      0.04538    0.57894    0.80544   1.00
H1       0.00737    0.59413    0.80367   1.00
C3b      0.08418    0.50837    0.82173   1.00
C4       0.03655    0.53064    0.82041   1.00
O_3      -0.08492   0.40518    0.81231   1.00
C5       0.12908    0.70738    0.77778   1.00
H2       0.10495    0.71970    0.79063   1.00
C5       0.12212    0.74030    0.75832   1.00
H2       0.18415    0.72824    0.78128   1.00
H2       0.07016    0.73409    0.75795   1.00
H2       0.12504    0.71052    0.74530   1.00
C5       0.17701    0.81619    0.75639   1.00
H2       0.17695    0.84407    0.77025   1.00
H2       0.16690    0.83973    0.74299   1.00
H2       0.22886    0.82262    0.75415   1.00
C5       -0.11152   0.38514    0.77737   1.00
H2       -0.15653   0.33324    0.77941   1.00
H2       -0.06554   0.37922    0.77725   1.00
C5       -0.11653   0.41711    0.75730   1.00
H2       -0.12708   0.38094    0.74459   1.00
C5       0.42129    0.38153    0.91679   1.00
H2       0.41210    0.32943    0.91363   1.00
H2       0.37051    0.37777    0.91605   1.00
C5       0.45237    0.40403    0.93823   1.00
H2       0.41188    0.38219    0.95006   1.00
H2       0.47992    0.46065    0.93939   1.00
O_3      0.53540    0.61457    0.83717   1.00
C4       0.49641    0.47578    0.83409   1.00
C3c      0.46301    0.44561    0.85236   1.00
H1       0.41569    0.44391    0.85608   1.00
C3d      0.55751    0.47659    0.82940   1.00
C3       0.49032    0.41817    0.86619   1.00
O2       0.45075    0.38220    0.88251   1.00
C3       0.58551    0.45048    0.84331   1.00
H1       0.63370    0.45441    0.83938   1.00
C2       0.55278    0.42046    0.86195   1.00
C5       0.60063    0.65804    0.82891   1.00
H2       0.59972    0.69317    0.81723   1.00
H2       0.62210    0.62810    0.82181   1.00
C5       0.64689    0.70057    0.84615   1.00
H2       0.64629    0.66545    0.85809   1.00
H2       0.62532    0.73071    0.85301   1.00
C5       0.71981    0.74778    0.83859   1.00
H2       0.72073    0.78267    0.82657   1.00
H2       0.74225    0.71763    0.83239   1.00
H2       0.75251    0.77952    0.85132   1.00
C5       0.57190    0.46524    0.79566   1.00
C5       0.46653    0.42599    0.89941   1.00
H2       0.51760    0.44789    0.79215   1.00
H2       0.57728    0.41955    0.79844   1.00
H2       0.45506    0.46744    0.89593   1.00
H2       0.52156    0.45080    0.90379   1.00
H2       0.48840    0.38517    0.94176   1.00
H2       0.53588    0.46816    0.75379   1.00
H2       0.57188    0.41317    0.75792   1.00
C2       0.41997    0.56690    0.79250   1.00
C3       0.39694    0.49641    0.79135   1.00
O2       0.36382    0.45984    0.77422   1.00
C3       0.46578    0.60523    0.80822   1.00
H1       0.48299    0.65892    0.80984   1.00
C3a      0.42119    0.46647    0.80540   1.00
H1       0.40611    0.41330    0.80361   1.00
C3b      0.49149    0.57575    0.82177   1.00
C4       0.46936    0.50590    0.82041   1.00
O_3      0.59500    0.51021    0.81236   1.00
C5       0.29289    0.42167    0.77768   1.00
H2       0.28055    0.38514    0.79051   1.00
C5       0.26016    0.38189    0.75819   1.00
H2       0.27192    0.45578    0.78119   1.00
H2       0.26647    0.33620    0.75780   1.00
H2       0.28998    0.41470    0.74519   1.00
C5       0.18425    0.36077    0.75622   1.00
H2       0.15630    0.33270    0.77006   1.00
H2       0.16085    0.32719    0.74279   1.00
H2       0.17772    0.40613    0.75399   1.00
C5       0.61531    0.50394    0.77743   1.00
H2       0.66724    0.51091    0.77950   1.00
H2       0.62113    0.55579    0.77733   1.00
C5       0.58352    0.46705    0.75733   1.00
H2       0.61976    0.49280    0.74464   1.00
C5       0.63567    0.39933    0.34326   1.00
H2       0.65659    0.36693    0.33795   1.00
H2       0.63450    0.39599    0.36008   1.00
C5       0.68310    0.47380    0.33633   1.00
H2       0.72751    0.50044    0.34674   1.00
H2       0.65448    0.50192    0.33606   1.00
O_3      0.28329    0.25955    0.34155   1.00
C4       0.35353    0.18958    0.33240   1.00
C3c      0.42079    0.23198    0.33905   1.00
H1       0.43095    0.24304    0.35504   1.00
C3d      0.34151    0.17503    0.31154   1.00
C3       0.47567    0.26146    0.32528   1.00
O2       0.54072    0.29548    0.33310   1.00
C3       0.39588    0.20534    0.29775   1.00
H1       0.38388    0.19462    0.28183   1.00
C2       0.46412    0.24894    0.30420   1.00
C5       0.23697    0.25295    0.32617   1.00
H2       0.18429    0.23305    0.33213   1.00
H2       0.23496    0.21802    0.31391   1.00
C5       0.26160    0.32335    0.31726   1.00
H2       0.31495    0.34405    0.31182   1.00
H2       0.26280    0.35762    0.32959   1.00
C5       0.21527    0.32042    0.29986   1.00
H2       0.16182    0.29935    0.30515   1.00
H2       0.21590    0.28811    0.28724   1.00
H2       0.23320    0.37254    0.29384   1.00
C5       0.25462    0.06773    0.30461   1.00
C5       0.56294    0.36577    0.33487   1.00
H2       0.25351    0.05008    0.32042   1.00
H2       0.28874    0.05596    0.29536   1.00
H2       0.52915    0.37360    0.34551   1.00
H2       0.56221    0.38933    0.32002   1.00
H2       0.70462    0.47576    0.32092   1.00
H2       0.13569    -0.05735   0.31727   1.00
H2       0.17966    -0.06945   0.29601   1.00
C2       0.18370    0.10466    0.37325   1.00
C3       0.22043    0.07040    0.36971   1.00
O2       0.19299    0.00279    0.37507   1.00
C3       0.20649    0.16859    0.36381   1.00
H1       0.18056    0.19692    0.36662   1.00
C3a      0.27728    0.09948    0.35659   1.00
H1       0.30248    0.07082    0.35313   1.00
C3b      0.26171    0.19634    0.35026   1.00
C4       0.29752    0.16173    0.34652   1.00
O_3      0.27578    0.13783    0.30405   1.00
C5       0.22279    -0.00273   0.39325   1.00
H2       0.27914    0.02019    0.39161   1.00
C5       0.19069    -0.07886   0.39795   1.00
H2       0.21243    0.02314    0.40600   1.00
H2       0.21601    -0.10023   0.38836   1.00
H2       0.13644    -0.10412   0.39297   1.00
C5       0.19548    -0.09327   0.42057   1.00
H2       0.24938    -0.06340   0.42567   1.00
H2       0.17687    -0.14844   0.42310   1.00
H2       0.16305    -0.07997   0.43016   1.00
C5       0.18280    0.02907    0.29591   1.00
H2       0.18582    0.03781    0.27922   1.00
H2       0.15288    0.05154    0.30232   1.00
C5       0.14735    -0.04765   0.30075   1.00
H2       0.09818    -0.07515   0.29243   1.00
C5       0.59615    0.37867    0.33663   1.00
H2       0.57432    0.38400    0.32212   1.00
H2       0.57103    0.39225    0.34877   1.00
C5       0.57972    0.30402    0.33914   1.00
H2       0.52700    0.27134    0.34501   1.00
H2       0.61647    0.30168    0.34986   1.00
O_3      0.91225    0.64692    0.36616   1.00
C4       0.83661    0.64686    0.33227   1.00
C3c      0.77105    0.59019    0.33474   1.00
H1       0.73985    0.58854    0.34738   1.00
C3d      0.87606    0.64844    0.31553   1.00
C3       0.74511    0.53459    0.32123   1.00
O2       0.67770    0.48495    0.32318   1.00
C3       0.85089    0.59258    0.30227   1.00
H1       0.88394    0.59504    0.29007   1.00
C2       0.78500    0.53455    0.30468   1.00
C5       0.97990    0.66516    0.36115   1.00
H2       1.01806    0.70870    0.37045   1.00
H2       0.99077    0.67952    0.34482   1.00
C5       0.98812    0.60362    0.36522   1.00
H2       0.94873    0.55959    0.35636   1.00
H2       0.97778    0.59015    0.38160   1.00
C5       1.05986    0.61832    0.35947   1.00
H2       1.09947    0.66254    0.36816   1.00
H2       1.06936    0.62946    0.34298   1.00
H2       1.06538    0.57329    0.36297   1.00
C5       0.94376    0.75470    0.30238   1.00
C5       0.67221    0.43167    0.33567   1.00
H2       0.91617    0.77631    0.31071   1.00
H2       0.92038    0.73802    0.28705   1.00
H2       0.69207    0.45150    0.35116   1.00
H2       0.70182    0.40806    0.32965   1.00
H2       0.58201    0.28155    0.32426   1.00
H2       1.00902    0.90128    0.30570   1.00
H2       0.99383    0.87184    0.27955   1.00
C2       0.92128    0.81393    0.37411   1.00
C3       0.88047    0.81329    0.35782   1.00
O2       0.88117    0.87229    0.35216   1.00
C3       0.93036    0.75694    0.37672   1.00
H1       0.95984    0.75508    0.38933   1.00
C3a      0.85147    0.75732    0.34437   1.00
H1       0.82362    0.75935    0.33132   1.00
C3b      0.90327    0.70237    0.36294   1.00
C4       0.86359    0.70228    0.34658   1.00
O_3      0.94278    0.70058    0.31327   1.00
C5       0.82247    0.87188    0.35952   1.00
H2       0.77495    0.82740    0.35349   1.00
C5       0.82649    0.93809    0.35235   1.00
H2       0.82072    0.86983    0.37642   1.00
H2       0.80975    0.93162    0.33622   1.00
H2       0.88122    0.97860    0.35255   1.00
C5       0.78361    0.95906    0.36547   1.00
H2       0.73030    0.91601    0.36641   1.00
H2       0.78319    1.00403    0.35881   1.00
H2       0.80520    0.97416    0.38111   1.00
C5       1.01799    0.81014    0.29995   1.00
H2       1.04255    0.79239    0.28874   1.00
H2       1.04439    0.81627    0.31471   1.00
C5       1.02496    0.87854    0.29333   1.00
H2       1.07905    0.91558    0.28966   1.00
C5       0.77157    0.39705    0.33819   1.00
H2       0.80009    0.42133    0.32405   1.00
H2       0.80851    0.42166    0.35079   1.00
C5       0.71123    0.41045    0.34040   1.00
H2       0.72878    0.46211    0.34680   1.00
H2       0.67162    0.37156    0.35056   1.00
O_3      0.73228    0.08209    0.36503   1.00
C4       0.81028    0.16343    0.33227   1.00
C3c      0.81634    0.22763    0.33529   1.00
H1       0.84366    0.25776    0.34836   1.00
C3d      0.77532    0.12541    0.31499   1.00
C3       0.78667    0.25351    0.32176   1.00
O2       0.80176    0.31994    0.32433   1.00
C3       0.74460    0.15046    0.30170   1.00
H1       0.71625    0.11843    0.28905   1.00
C2       0.74960    0.21495    0.30465   1.00
C5       0.68531    0.01453    0.35917   1.00
H2       0.69125    -0.02376   0.36823   1.00
H2       0.69128    0.00609    0.34280   1.00
C5       0.61405    0.00315    0.36268   1.00
H2       0.60876    0.04263    0.35408   1.00
H2       0.60846    0.01108    0.37909   1.00
C5       0.55956    -0.06861   0.35600   1.00
H2       0.56485    -0.10829   0.36442   1.00
H2       0.56361    -0.07577   0.33946   1.00
H2       0.50784    -0.07651   0.35909   1.00
C5       0.81902    0.06238    0.30164   1.00
C5       0.75131    0.32181    0.33651   1.00
H2       0.86703    0.09032    0.31051   1.00
H2       0.82672    0.08746    0.28653   1.00
H2       0.75023    0.30042    0.35184   1.00
H2       0.69900    0.29144    0.32989   1.00
H2       0.68789    0.40909    0.32533   1.00
H2       0.90420    0.00139    0.30505   1.00
H2       0.89220    0.01898    0.27894   1.00
C2       0.89274    0.07864    0.37405   1.00
C3       0.93396    0.12224    0.35837   1.00
O2       0.99410    0.12463    0.35312   1.00
C3       0.82545    0.06676    0.37611   1.00
H1       0.79320    0.03506    0.38828   1.00
C3a      0.90688    0.15122    0.34494   1.00
H1       0.93777    0.18133    0.33233   1.00
C3b      0.79797    0.09389    0.36235   1.00
C4       0.83866    0.13637    0.34658   1.00
O_3      0.76350    0.05982    0.31214   1.00
C5       1.05021    0.18349    0.36134   1.00
H2       1.05207    0.23087    0.35568   1.00
C5       1.11463    0.18298    0.35459   1.00
H2       1.04779    0.18306    0.37823   1.00
H2       1.12636    0.20181    0.33868   1.00
H2       1.10237    0.12882    0.35429   1.00
C5       1.17637    0.22586    0.36848   1.00
H2       1.18451    0.27832    0.36988   1.00
H2       1.22342    0.22894    0.36215   1.00
H2       1.16875    0.20250    0.38389   1.00
C5       0.80321    -0.01071   0.29852   1.00
H2       0.76246    -0.03503   0.28684   1.00
H2       0.78186    -0.03922   0.31294   1.00
C5       0.86693    -0.01421   0.29230   1.00
H2       0.85222    -0.06736   0.28812   1.00
C5       0.83871    0.63629    0.74549   1.00
H2       0.85649    0.59868    0.74618   1.00
H2       0.88553    0.68714    0.74445   1.00
C5       0.79377    0.62260    0.72643   1.00
H2       0.82590    0.64534    0.71270   1.00
H2       0.76004    0.64483    0.72847   1.00
O_3      0.75303    0.73108    0.83638   1.00
C4       0.81010    0.64611    0.83253   1.00
C3c      0.83293    0.65336    0.81239   1.00
H1       0.87349    0.70219    0.80718   1.00
C3d      0.75786    0.58181    0.83911   1.00
C3       0.80341    0.59845    0.79864   1.00
O2       0.83389    0.60708    0.77997   1.00
C3       0.72748    0.52737    0.82534   1.00
H1       0.68596    0.47968    0.83088   1.00
C2       0.74944    0.53402    0.80486   1.00
C5       0.69320    0.70150    0.84829   1.00
H2       0.69641    0.73511    0.86111   1.00
H2       0.68265    0.65155    0.85471   1.00
C5       0.63436    0.69008    0.83463   1.00
H2       0.63234    0.65807    0.82152   1.00
H2       0.64512    0.74033    0.82847   1.00
C5       0.56662    0.65567    0.84626   1.00
H2       0.56844    0.68713    0.85945   1.00
H2       0.55466    0.60446    0.85182   1.00
H2       0.52445    0.64911    0.83615   1.00
C5       0.76800    0.55769    0.87208   1.00
C5       0.80258    0.62940    0.76572   1.00
H2       0.82172    0.60003    0.87308   1.00
H2       0.76795    0.51007    0.86769   1.00
H2       0.80919    0.67969    0.77044   1.00
H2       0.74658    0.59307    0.76420   1.00
H2       0.76173    0.56671    0.72337   1.00
H2       0.82677    0.60086    0.91198   1.00
H2       0.79955    0.51198    0.90686   1.00
C2       0.89246    0.81301    0.87443   1.00
C3       0.92411    0.77329    0.87197   1.00
O2       0.97016    0.77610    0.88619   1.00
C3       0.83562    0.79832    0.86208   1.00
H1       0.81134    0.82889    0.86322   1.00
C3a      0.89757    0.71935    0.85780   1.00
H1       0.91996    0.68699    0.85692   1.00
C3b      0.80803    0.74328    0.84847   1.00
C4       0.83889    0.70319    0.84626   1.00
O_3      0.73006    0.57328    0.85831   1.00
C5       1.03742    0.81684    0.87900   1.00
H2       1.04562    0.79604    0.86458   1.00
C5       1.08508    0.81642    0.89539   1.00
H2       1.04921    0.87023    0.87628   1.00
H2       1.08620    0.76796    0.89413   1.00
H2       1.06175    0.81515    0.91038   1.00
C5       1.15785    0.87832    0.89404   1.00
H2       1.17828    0.88187    0.87849   1.00
H2       1.19235    0.87330    0.90506   1.00
H2       1.15865    0.92684    0.89785   1.00
C5       0.73490    0.54754    0.89285   1.00
H2       0.68574    0.49834    0.89277   1.00
H2       0.72227    0.58869    0.89523   1.00
C5       0.78169    0.54879    0.90999   1.00
H2       0.75339    0.53420    0.92459   1.00
C5       0.58588    0.43488    0.82358   1.00
H2       0.62431    0.41840    0.82519   1.00
H2       0.58084    0.45254    0.83886   1.00
C5       0.61170    0.49407    0.80811   1.00
H2       0.64818    0.54346    0.81538   1.00
H2       0.56794    0.49767    0.80186   1.00
O_3      0.24310    0.18403    0.82566   1.00
C4       0.35381    0.16281    0.83251   1.00
C3c      0.41099    0.22792    0.83518   1.00
H1       0.41322    0.25861    0.84803   1.00
C3d      0.35235    0.12325    0.81582   1.00
C3       0.46549    0.25482    0.82126   1.00
O2       0.52318    0.31518    0.82617   1.00
C3       0.40594    0.15040    0.80173   1.00
H1       0.40146    0.11913    0.78878   1.00
C2       0.46381    0.21644    0.80407   1.00
C5       0.19786    0.14002    0.81071   1.00
H2       0.14434    0.11060    0.81634   1.00
H2       0.21339    0.10299    0.80538   1.00
C5       0.20005    0.18376    0.79293   1.00
H2       0.25385    0.21460    0.78767   1.00
H2       0.18384    0.22009    0.79838   1.00
C5       0.15391    0.13955    0.77561   1.00
H2       0.10019    0.10826    0.78079   1.00
H2       0.17149    0.10491    0.76968   1.00
H2       0.15502    0.17248    0.76293   1.00
C5       0.29921    0.00904    0.82224   1.00
C5       0.51946    0.37056    0.81768   1.00
H2       0.30030    0.01676    0.83892   1.00
H2       0.34546    0.00654    0.81778   1.00
H2       0.47476    0.37249    0.82401   1.00
H2       0.51360    0.36676    0.80080   1.00
H2       0.63997    0.48670    0.79536   1.00
H2       0.21100    -0.10732   0.84704   1.00
H2       0.27218    -0.11991   0.83258   1.00
C2       0.18313    0.08130    0.87302   1.00
C3       0.23970    0.07313    0.87733   1.00
O2       0.23428    0.02554    0.89139   1.00
C3       0.18600    0.11959    0.85571   1.00
H1       0.14429    0.12827    0.85228   1.00
C3a      0.29642    0.10149    0.86415   1.00
H1       0.33762    0.09149    0.86703   1.00
C3b      0.24152    0.14585    0.84228   1.00
C4       0.29727    0.13680    0.84642   1.00
O_3      0.29506    0.06103    0.81167   1.00
C5       0.26484    0.05783    0.90986   1.00
H2       0.32000    0.09600    0.90776   1.00
C5       0.25775    0.00207    0.92446   1.00
H2       0.23878    0.08419    0.91641   1.00
H2       0.29800    -0.01078   0.92077   1.00
H2       0.20791    -0.04450   0.92123   1.00
C5       0.26218    0.02270    0.94694   1.00
H2       0.30973    0.07208    0.94952   1.00
H2       0.26259    -0.01661   0.95698   1.00
H2       0.21713    0.02733    0.95154   1.00
C5       0.23597    -0.05835   0.81692   1.00
H2       0.24089    -0.07168   0.80099   1.00
H2       0.19102    -0.05077   0.81740   1.00
C5       0.22529    -0.11586   0.83156   1.00
H2       0.18313    -0.16547   0.82601   1.00
C5       0.57557    0.17843    0.82979   1.00
H2       0.59768    0.23462    0.82988   1.00
H2       0.56208    0.16181    0.84580   1.00
C5       0.51098    0.14530    0.81631   1.00
H2       0.46606    0.14005    0.82478   1.00
H2       0.50006    0.09396    0.81120   1.00
O_3      0.80023    0.05282    0.82895   1.00
C4       0.83727    0.19099    0.83249   1.00
C3c      0.77657    0.19131    0.83658   1.00
H1       0.74938    0.16938    0.85055   1.00
C3d      0.87242    0.22070    0.81432   1.00
C3       0.74950    0.21883    0.82269   1.00
O2       0.69463    0.22486    0.82880   1.00
C3       0.84492    0.24697    0.80029   1.00
H1       0.87242    0.26704    0.78624   1.00
C2       0.78320    0.24703    0.80408   1.00
C5       0.83576    0.04129    0.81327   1.00
H2       0.86256    0.01438    0.81880   1.00
H2       0.87428    0.09026    0.80613   1.00
C5       0.78384    -0.00302   0.79737   1.00
H2       0.75571    0.02299    0.79226   1.00
H2       0.74602    -0.05200   0.80463   1.00
C5       0.81862    -0.01608   0.77935   1.00
H2       0.84720    -0.04161   0.78437   1.00
H2       0.85466    0.03261    0.77167   1.00
H2       0.77973    -0.04978   0.76810   1.00
C5       0.98819    0.27332    0.81714   1.00
C5       0.63324    0.16660    0.82273   1.00
H2       0.98628    0.27285    0.83400   1.00
H2       0.99436    0.32268    0.81162   1.00
H2       0.62852    0.12001    0.83006   1.00
H2       0.63044    0.15836    0.80594   1.00
H2       0.51723    0.17757    0.80274   1.00
H2       1.10894    0.29728    0.83888   1.00
H2       1.12371    0.36837    0.82269   1.00
C2       0.91807    0.10125    0.87304   1.00
C3       0.93449    0.16964    0.87576   1.00
O2       0.98873    0.21291    0.88788   1.00
C3       0.87209    0.06287    0.85736   1.00
H1       0.85711    0.00989    0.85522   1.00
C3a      0.90642    0.19837    0.86262   1.00
H1       0.92252    0.25187    0.86417   1.00
C3b      0.84598    0.09221    0.84391   1.00
C4       0.86317    0.16050    0.84644   1.00
O_3      0.92955    0.21708    0.80888   1.00
C5       0.96508    0.22109    0.90689   1.00
H2       0.93058    0.24276    0.90518   1.00
C5       1.02786    0.27040    0.91923   1.00
H2       0.93699    0.17142    0.91503   1.00
H2       1.04446    0.32335    0.91418   1.00
H2       1.06981    0.26035    0.91519   1.00
C5       1.01494    0.26335    0.94230   1.00
H2       0.96957    0.26817    0.94588   1.00
H2       1.05972    0.30370    0.95065   1.00
H2       1.00672    0.21331    0.94804   1.00
C5       1.04964    0.26788    0.81046   1.00
H2       1.05836    0.28014    0.79399   1.00
H2       1.03686    0.21382    0.81221   1.00
C5       1.11387    0.31505    0.82286   1.00
H2       1.15900    0.31511    0.81622   1.00
C5       -0.04694   0.35942    0.41407   1.00
H2       -0.06167   0.39404    0.42158   1.00
H2       0.00878    0.38242    0.41662   1.00
C5       -0.08604   0.28794    0.42396   1.00
H2       -0.06079   0.28642    0.43828   1.00
H2       -0.08809   0.24876    0.41333   1.00
O_3      0.00672    0.39148    0.30973   1.00
C4       -0.02021   0.47707    0.33425   1.00
C3c      -0.01211   0.46184    0.35435   1.00
H1       0.03746    0.47232    0.35957   1.00
C3d      -0.08502   0.46393    0.32784   1.00
C3       -0.06760   0.43214    0.36791   1.00
O2       -0.05418   0.42642    0.38795   1.00
C3       -0.14065   0.43316    0.34118   1.00
H1       -0.18986   0.42181    0.33537   1.00
C2       -0.13352   0.41674    0.36149   1.00
C5       -0.03764   0.36539    0.29291   1.00
H2       -0.00942   0.37648    0.27827   1.00
H2       -0.07227   0.38712    0.29216   1.00
C5       -0.08016   0.28854    0.29547   1.00
H2       -0.10687   0.27745    0.31037   1.00
H2       -0.04511   0.26734    0.29601   1.00
C5       -0.13171   0.25618    0.27812   1.00
H2       -0.10541   0.26746    0.26319   1.00
H2       -0.16821   0.27556    0.27801   1.00
H2       -0.16127   0.19987    0.28002   1.00
C5       -0.08205   0.54097    0.30497   1.00
C5       -0.06148   0.36150    0.39148   1.00
H2       -0.02747   0.57789    0.30814   1.00
H2       -0.11424   0.55343    0.31491   1.00
H2       -0.02415   0.35495    0.38209   1.00
H2       -0.11360   0.31890    0.38757   1.00
H2       -0.13914   0.27460    0.42816   1.00
H2       -0.00878   0.64958    0.27611   1.00
H2       -0.08132   0.65138    0.28722   1.00
C2       0.14478    0.56025    0.29169   1.00
C3       0.13444    0.60403    0.30459   1.00
O2       0.16522    0.67284    0.30042   1.00
C3       0.10170    0.48900    0.29393   1.00
H1       0.10940    0.45409    0.28464   1.00
C3a      0.08091    0.57614    0.31889   1.00
H1       0.07122    0.61040    0.32786   1.00
C3b      0.04716    0.46150    0.30771   1.00
C4       0.03629    0.50510    0.32031   1.00
O_3      -0.09682   0.47317    0.30781   1.00
C5       0.22235    0.70970    0.31311   1.00
H2       0.20744    0.70173    0.32945   1.00
C5       0.25276    0.78522    0.30780   1.00
H2       0.26130    0.69413    0.31051   1.00
H2       0.22189    0.80459    0.31542   1.00
H2       0.24616    0.78854    0.29118   1.00
C5       0.32852    0.82867    0.31378   1.00
H2       0.33487    0.82052    0.33007   1.00
H2       0.34718    0.88386    0.31127   1.00
H2       0.36141    0.81554    0.30435   1.00
C5       -0.09694   0.54836    0.28289   1.00
H2       -0.15323   0.52041    0.28066   1.00
H2       -0.07611   0.52261    0.27325   1.00
C5       -0.06560   0.62360    0.27659   1.00
H2       -0.08337   0.62696    0.26115   1.00
C5       0.38855    1.05964    0.40933   1.00
H2       0.43366    1.06956    0.41854   1.00
H2       0.35066    1.00480    0.41152   1.00
C5       0.35969    1.10464    0.41712   1.00
H2       0.32690    1.08131    0.43070   1.00
H2       0.32901    1.11095    0.40502   1.00
O_3      0.39774    1.00445    0.30581   1.00
C4       0.49723    1.02013    0.33428   1.00
C3c      0.46771    1.01452    0.35343   1.00
H1       0.42369    0.96690    0.35790   1.00
C3d      0.55517    1.08233    0.32886   1.00
C3       0.49365    1.07012    0.36694   1.00
O2       0.46740    1.05842    0.38630   1.00
C3       0.58032    1.13818    0.34213   1.00
H1       0.62335    1.18555    0.33702   1.00
C2       0.55063    1.13361    0.36146   1.00
C5       0.42572    1.04884    0.28907   1.00
H2       0.41144    1.02094    0.27434   1.00
H2       0.48251    1.07880    0.29001   1.00
C5       0.39794    1.09757    0.28945   1.00
H2       0.41055    1.12406    0.30440   1.00
H2       0.34128    1.06716    0.28831   1.00
C5       0.42781    1.14942    0.27208   1.00
H2       0.41582    1.12329    0.25712   1.00
H2       0.48416    1.18141    0.27360   1.00
H2       0.40578    1.18363    0.27234   1.00
C5       0.63153    1.07042    0.30924   1.00
C5       0.41346    1.07278    0.38733   1.00
H2       0.60756    1.01505    0.31264   1.00
H2       0.67349    1.09928    0.32035   1.00
H2       0.37142    1.03842    0.37688   1.00
H2       0.42981    1.12649    0.38289   1.00
H2       0.40153    1.15600    0.42197   1.00
H2       0.66559    0.98890    0.28334   1.00
H2       0.73955    1.05683    0.29611   1.00
C2       0.41613    0.85539    0.29163   1.00
C3       0.46329    0.86020    0.30647   1.00
O2       0.49647    0.82338    0.30443   1.00
C3       0.39425    0.90400    0.29193   1.00
H1       0.35687    0.90069    0.28111   1.00
C3a      0.48860    0.91376    0.32076   1.00
H1       0.52758    0.91901    0.33128   1.00
C3b      0.42115    0.95845    0.30575   1.00
C4       0.46882    0.96377    0.32029   1.00
O_3      0.58297    1.09209    0.30962   1.00
C5       0.46652    0.76573    0.31722   1.00
H2       0.46915    0.78082    0.33347   1.00
C5       0.50670    0.72847    0.31435   1.00
H2       0.41208    0.73098    0.31311   1.00
H2       0.55450    0.75528    0.32341   1.00
H2       0.52238    0.73408    0.29813   1.00
C5       0.46563    0.65252    0.32031   1.00
H2       0.44583    0.64769    0.33601   1.00
H2       0.49827    0.62865    0.31965   1.00
H2       0.42214    0.62308    0.30967   1.00
C5       0.66155    1.08327    0.28796   1.00
H2       0.69535    1.13924    0.28590   1.00
H2       0.61905    1.06659    0.27686   1.00
C5       0.70085    1.04517    0.28406   1.00
H2       0.72788    1.06126    0.26927   1.00
C5       0.67002    0.61088    0.40952   1.00
H2       0.63483    0.56560    0.41867   1.00
H2       0.65285    0.64859    0.41173   1.00
C5       0.74381    0.63988    0.41739   1.00
H2       0.75298    0.67247    0.43100   1.00
H2       0.78090    0.67081    0.40534   1.00
O_3      0.60683    0.60276    0.30595   1.00
C4       0.52291    0.50277    0.33428   1.00
C3c      0.54651    0.53208    0.35347   1.00
H1       0.54266    0.57594    0.35797   1.00
C3d      0.52750    0.44504    0.32882   1.00
C3       0.57617    0.50615    0.36698   1.00
O2       0.59040    0.53215    0.38637   1.00
C3       0.55819    0.41990    0.34209   1.00
H1       0.56279    0.37704    0.33695   1.00
C2       0.58300    0.44939    0.36146   1.00
C5       0.62360    0.57512    0.28920   1.00
H2       0.61008    0.58951    0.27447   1.00
H2       0.59695    0.51833    0.29007   1.00
C5       0.70015    0.60316    0.28965   1.00
H2       0.71393    0.59045    0.30460   1.00
H2       0.72623    0.65983    0.28858   1.00
C5       0.72252    0.57367    0.27228   1.00
H2       0.70849    0.58577    0.25731   1.00
H2       0.69833    0.51732    0.27374   1.00
H2       0.77879    0.59589    0.27259   1.00
C5       0.43960    0.36872    0.30908   1.00
C5       0.65860    0.58626    0.38749   1.00
H2       0.40799    0.39246    0.31247   1.00
H2       0.42651    0.32665    0.32014   1.00
H2       0.66625    0.62837    0.37708   1.00
H2       0.69617    0.57015    0.38307   1.00
H2       0.75347    0.59812    0.42221   1.00
H2       0.32424    0.33458    0.28306   1.00
H2       0.31836    0.26058    0.29578   1.00
C2       0.43929    0.58389    0.29163   1.00
C3       0.39686    0.53646    0.30640   1.00
O2       0.32689    0.50309    0.30429   1.00
C3       0.50983    0.60602    0.29200   1.00
H1       0.54395    0.64360    0.28123   1.00
C3a      0.42509    0.51114    0.32069   1.00
H1       0.39133    0.47197    0.33116   1.00
C3b      0.53738    0.57911    0.30582   1.00
C4       0.49496    0.53118    0.32029   1.00
O_3      0.50978    0.41747    0.30954   1.00
C5       0.29884    0.53270    0.31709   1.00
H2       0.31112    0.52991    0.33334   1.00
C5       0.22145    0.49232    0.31412   1.00
H2       0.31839    0.58716    0.31303   1.00
H2       0.20050    0.44441    0.32313   1.00
H2       0.21162    0.47683    0.29788   1.00
C5       0.18624    0.53308    0.32010   1.00
H2       0.20096    0.55269    0.33582   1.00
H2       0.12976    0.50028    0.31937   1.00
H2       0.20027    0.57667    0.30949   1.00
C5       0.42279    0.33896    0.28776   1.00
H2       0.44517    0.30536    0.28569   1.00
H2       0.44863    0.38163    0.27671   1.00
C5       0.34544    0.29947    0.28377   1.00
H2       0.33477    0.27264    0.26896   1.00
C5       0.30898    0.38091    0.24717   1.00
H2       0.35849    0.42636    0.24314   1.00
H2       0.31669    0.33641    0.24551   1.00
C5       0.29064    0.38723    0.26938   1.00
H2       0.31803    0.37142    0.28015   1.00
H2       0.23473    0.35457    0.27179   1.00
O_3      0.05628    0.24672    0.17309   1.00
C4       0.19083    0.35400    0.16742   1.00
C3c      0.22726    0.35364    0.18462   1.00
H1       0.23390    0.31032    0.18749   1.00
C3d      0.18360    0.41138    0.16380   1.00
C3       0.25473    0.40832    0.19847   1.00
O2       0.29668    0.40812    0.21354   1.00
C3       0.20976    0.46532    0.17778   1.00
H1       0.20086    0.50714    0.17474   1.00
C2       0.24609    0.46545    0.19536   1.00
C5       0.00714    0.26361    0.16659   1.00
H2       -0.02932   0.22613    0.15543   1.00
H2       0.03191    0.31521    0.15947   1.00
C5       -0.03266   0.26354    0.18515   1.00
H2       0.00399    0.29958    0.19654   1.00
H2       -0.05768   0.21163    0.19203   1.00
C5       -0.08582   0.28388    0.17953   1.00
H2       -0.12230   0.24838    0.16806   1.00
H2       -0.06071   0.33662    0.17332   1.00
H2       -0.11541   0.28208    0.19321   1.00
C5       0.18416    0.43674    0.13029   1.00
C5       0.25818    0.37767    0.23126   1.00
H2       0.20437    0.40301    0.12563   1.00
H2       0.22792    0.48944    0.13252   1.00
H2       0.21879    0.32357    0.22818   1.00
H2       0.23105    0.40433    0.23692   1.00
H2       0.30645    0.44122    0.27324   1.00
H2       0.17329    0.39914    0.08802   1.00
H2       0.22364    0.49072    0.09199   1.00
C2       0.09956    0.18606    0.12597   1.00
C3       0.16828    0.23746    0.12344   1.00
O2       0.20134    0.24387    0.10529   1.00
C3       0.06338    0.18992    0.14294   1.00
H1       0.01126    0.15045    0.14559   1.00
C3a      0.19845    0.29183    0.13743   1.00
H1       0.24985    0.33279    0.13464   1.00
C3b      0.09284    0.24518    0.15646   1.00
C4       0.16083    0.29678    0.15375   1.00
O_3      0.14386    0.41204    0.14795   1.00
C5       0.24463    0.21600    0.10699   1.00
H2       0.28386    0.24232    0.11905   1.00
C5       0.28007    0.22610    0.08647   1.00
H2       0.21490    0.16052    0.11060   1.00
H2       0.32290    0.27968    0.08555   1.00
H2       0.24284    0.22032    0.07449   1.00
C5       0.30612    0.17571    0.08291   1.00
H2       0.33890    0.17835    0.09582   1.00
H2       0.33648    0.18828    0.06867   1.00
H2       0.26292    0.12225    0.08121   1.00
C5       0.13878    0.43775    0.11342   1.00
H2       0.12826    0.48001    0.11647   1.00
H2       0.08893    0.38932    0.11415   1.00
C5       0.17123    0.44573    0.09235   1.00
H2       0.14025    0.45341    0.08069   1.00
C5       0.39326    0.57890    0.16878   1.00
H2       0.40136    0.56463    0.18422   1.00
H2       0.41082    0.55298    0.15808   1.00
C5       0.31651    0.55340    0.16559   1.00
H2       0.28854    0.49838    0.16144   1.00
H2       0.30970    0.58323    0.15332   1.00
O_3      0.63818    0.89447    0.13085   1.00
C4       0.64689    0.83673    0.16774   1.00
C3c      0.59513    0.76804    0.16706   1.00
H1       0.59737    0.73439    0.15585   1.00
C3d      0.64351    0.87949    0.18266   1.00
C3       0.53943    0.74193    0.18054   1.00
O2       0.49529    0.67261    0.18060   1.00
C3       0.58746    0.85397    0.19585   1.00
H1       0.58585    0.88927    0.20657   1.00
C2       0.53428    0.78482    0.19523   1.00
C5       0.64911    0.96117    0.13323   1.00
H2       0.69052    0.99859    0.12317   1.00
H2       0.66270    0.97894    0.14922   1.00
C5       0.58320    0.95956    0.12767   1.00
H2       0.54142    0.92077    0.13733   1.00
H2       0.57047    0.94236    0.11161   1.00
C5       0.58988    1.02986    0.13053   1.00
H2       0.63183    1.06893    0.12104   1.00
H2       0.60025    1.04602    0.14670   1.00
H2       0.54173    1.02804    0.12597   1.00
C5       0.74722    0.96025    0.19478   1.00
C5       0.43990    0.65631    0.16743   1.00
H2       0.77351    0.93443    0.18812   1.00
H2       0.73226    0.94207    0.21069   1.00
H2       0.45861    0.67157    0.15158   1.00
H2       0.41128    0.68291    0.17168   1.00
H2       0.29232    0.55807    0.17983   1.00
H2       0.89400    1.03789    0.19143   1.00
H2       0.86443    1.02959    0.21747   1.00
C2       0.81346    0.92096    0.12573   1.00
C3       0.81754    0.88901    0.14364   1.00
O2       0.87965    0.89913    0.15034   1.00
C3       0.75223    0.92124    0.12167   1.00
H1       0.74684    0.94372    0.10784   1.00
C3a      0.76182    0.86001    0.15718   1.00
H1       0.76719    0.83921    0.17137   1.00
C3b      0.69775    0.89429    0.13547   1.00
C4       0.70228    0.86349    0.15342   1.00
O_3      0.69037    0.94860    0.18299   1.00
C5       0.88649    0.84211    0.14557   1.00
H2       0.84526    0.79472    0.15278   1.00
C5       0.95578    0.85675    0.15377   1.00
H2       0.88477    0.83412    0.12885   1.00
H2       0.95078    0.84628    0.17037   1.00
H2       0.99185    0.91242    0.15196   1.00
C5       0.98333    0.81497    0.14300   1.00
H2       0.94441    0.75988    0.14358   1.00
H2       1.03075    0.82265    0.15048   1.00
H2       0.99684    0.83119    0.12685   1.00
C5       0.79663    1.03680    0.19502   1.00
H2       0.77475    1.06134    0.20474   1.00
H2       0.80008    1.05665    0.17934   1.00
C5       0.86789    1.05425    0.20258   1.00
H2       0.90033    1.11029    0.20456   1.00
C5       0.39705    0.77156    0.16181   1.00
H2       0.42133    0.80009    0.17594   1.00
H2       0.42166    0.80850    0.14921   1.00
C5       0.41045    0.71122    0.15960   1.00
H2       0.46211    0.72877    0.15320   1.00
H2       0.37156    0.67161    0.14944   1.00
O_3      0.08209    0.73228    0.13497   1.00
C4       0.16343    0.81028    0.16773   1.00
C3c      0.22762    0.81634    0.16471   1.00
H1       0.25776    0.84366    0.15164   1.00
C3d      0.12541    0.77532    0.18501   1.00
C3       0.25351    0.78667    0.17824   1.00
O2       0.31994    0.80175    0.17567   1.00
C3       0.15046    0.74460    0.19830   1.00
H1       0.11843    0.71626    0.21095   1.00
C2       0.21495    0.74960    0.19535   1.00
C5       0.01453    0.68532    0.14083   1.00
H2       -0.02376   0.69125    0.13178   1.00
H2       0.00609    0.69128    0.15720   1.00
C5       0.00315    0.61405    0.13732   1.00
H2       0.04262    0.60876    0.14592   1.00
H2       0.01108    0.60845    0.12091   1.00
C5       -0.06862   0.55957    0.14401   1.00
H2       -0.10829   0.56485    0.13558   1.00
H2       -0.07577   0.56361    0.16054   1.00
H2       -0.07651   0.50784    0.14091   1.00
C5       0.06239    0.81903    0.19836   1.00
C5       0.32180    0.75131    0.16349   1.00
H2       0.09032    0.86703    0.18949   1.00
H2       0.08746    0.82673    0.21347   1.00
H2       0.30042    0.75023    0.14816   1.00
H2       0.29144    0.69900    0.17011   1.00
H2       0.40909    0.68788    0.17467   1.00
H2       0.00139    0.90421    0.19495   1.00
H2       0.01898    0.89221    0.22106   1.00
C2       0.07864    0.89274    0.12595   1.00
C3       0.12224    0.93396    0.14163   1.00
O2       0.12463    0.99410    0.14687   1.00
C3       0.06676    0.82545    0.12389   1.00
H1       0.03505    0.79320    0.11172   1.00
C3a      0.15122    0.90688    0.15506   1.00
H1       0.18133    0.93777    0.16767   1.00
C3b      0.09389    0.79797    0.13765   1.00
C4       0.13637    0.83866    0.15342   1.00
O_3      0.05982    0.76350    0.18786   1.00
C5       0.18349    1.05021    0.13866   1.00
H2       0.23087    1.05207    0.14432   1.00
C5       0.18298    1.11464    0.14541   1.00
H2       0.18306    1.04779    0.12177   1.00
H2       0.20181    1.12636    0.16132   1.00
H2       0.12883    1.10237    0.14571   1.00
C5       0.22586    1.17637    0.13152   1.00
H2       0.27832    1.18451    0.13012   1.00
H2       0.22895    1.22342    0.13785   1.00
H2       0.20250    1.16875    0.11611   1.00
C5       -0.01071   0.80322    0.20148   1.00
H2       -0.03503   0.76246    0.21316   1.00
H2       -0.03922   0.78187    0.18706   1.00
C5       -0.01421   0.86693    0.20770   1.00
H2       -0.06736   0.85223    0.21188   1.00
C5       1.03246    0.58788    0.58038   1.00
H2       1.07169    0.64242    0.58226   1.00
H2       0.98262    0.58626    0.58008   1.00
C5       1.04454    0.56098    0.56013   1.00
H2       1.02284    0.57543    0.54717   1.00
H2       1.02030    0.50444    0.56066   1.00
O_3      0.93115    0.38234    0.66644   1.00
C4       1.02058    0.52427    0.66589   1.00
C3c      1.01432    0.54619    0.64649   1.00
H1       0.96630    0.54137    0.64187   1.00
C3d      1.08388    0.53191    0.67172   1.00
C3       1.06919    0.57363    0.63270   1.00
O2       1.06186    0.60155    0.61500   1.00
C3       1.13822    0.55800    0.65789   1.00
H1       1.18504    0.56064    0.66278   1.00
C2       1.13254    0.57972    0.63813   1.00
C5       0.95860    0.34690    0.67677   1.00
H2       0.92432    0.31374    0.68909   1.00
H2       1.00912    0.38300    0.68361   1.00
C5       0.96771    0.30210    0.66140   1.00
H2       1.00040    0.33499    0.64880   1.00
H2       0.91688    0.26585    0.65481   1.00
C5       0.99973    0.26340    0.67126   1.00
H2       0.96758    0.23081    0.68394   1.00
H2       1.05149    0.29953    0.67722   1.00
H2       1.00460    0.22980    0.65989   1.00
C5       1.10876    0.55627    0.70527   1.00
C5       1.03773    0.55205    0.59941   1.00
H2       1.06793    0.56937    0.70737   1.00
H2       1.15745    0.60387    0.70167   1.00
H2       0.98662    0.50843    0.60351   1.00
H2       1.07235    0.53094    0.59661   1.00
H2       1.10022    0.58372    0.55691   1.00
H2       1.06705    0.56254    0.74624   1.00
H2       1.15668    0.62294    0.74168   1.00
C2       0.85348    0.43342    0.70765   1.00
C3       0.89551    0.50501    0.70690   1.00
O2       0.89463    0.54504    0.72254   1.00
C3       0.86601    0.39346    0.69369   1.00
H1       0.83367    0.33866    0.69352   1.00
C3a      0.94952    0.53464    0.69278   1.00
H1       0.98360    0.58919    0.69317   1.00
C3b      0.92109    0.42293    0.68011   1.00
C4       0.96346    0.49402    0.67959   1.00
O_3      1.09121    0.50644    0.69004   1.00
C5       0.85608    0.57581    0.71698   1.00
H2       0.87779    0.60855    0.70324   1.00
C5       0.85855    0.62000    0.73489   1.00
H2       0.80208    0.53656    0.71380   1.00
H2       0.90813    0.66871    0.73445   1.00
H2       0.85870    0.59321    0.74905   1.00
C5       0.79860    0.63409    0.73498   1.00
H2       0.79599    0.65585    0.72013   1.00
H2       0.80521    0.67090    0.74718   1.00
H2       0.74903    0.58653    0.73801   1.00
C5       1.11751    0.52654    0.72500   1.00
H2       1.16557    0.52451    0.72407   1.00
H2       1.07488    0.47292    0.72628   1.00
C5       1.11824    0.56801    0.74360   1.00
H2       1.13177    0.54925    0.75742   1.00
C5       0.57949    -0.04007   0.58333   1.00
H2       0.58845    -0.08310   0.58653   1.00
H2       0.63035    0.00684    0.58412   1.00
C5       0.54870    -0.04854   0.56185   1.00
H2       0.58933    -0.03000   0.55007   1.00
H2       0.52134    -0.01930   0.56063   1.00
O_3      0.46512    0.07954    0.66271   1.00
C4       0.50358    -0.02063   0.66591   1.00
C3c      0.53716    -0.01751   0.64769   1.00
H1       0.58461    0.02801    0.64400   1.00
C3d      0.44231    -0.08079   0.67056   1.00
C3       0.50985    -0.07226   0.63386   1.00
O2       0.54956    -0.06881   0.61759   1.00
C3       0.41432    -0.13489   0.65664   1.00
H1       0.36601    -0.17904   0.66054   1.00
C2       0.44722    -0.13230   0.63805   1.00
C5       0.39983    0.05800    0.67089   1.00
H2       0.40073    0.09409    0.68255   1.00
H2       0.37811    0.00656    0.67800   1.00
C5       0.35385    0.05444    0.65358   1.00
H2       0.35446    0.01985    0.64167   1.00
H2       0.37568    0.10618    0.64672   1.00
C5       0.28089    0.02897    0.66105   1.00
H2       0.27996    0.06301    0.67306   1.00
H2       0.25821    -0.02363   0.66726   1.00
H2       0.24841    0.02815    0.64829   1.00
C5       0.42743    -0.10653   0.70429   1.00
C5       0.53413    -0.04068   0.60064   1.00
H2       0.48173    -0.06973   0.70785   1.00
H2       0.42189    -0.15769   0.70154   1.00
H2       0.54574    0.01231    0.60411   1.00
H2       0.47914    -0.07073   0.59621   1.00
H2       0.51257    -0.10339   0.55831   1.00
H2       0.46303    -0.06767   0.74619   1.00
H2       0.42678    -0.15870   0.74206   1.00
C2       0.58003    0.14696    0.70749   1.00
C3       0.60282    0.09931    0.70871   1.00
O2       0.63564    0.09571    0.72589   1.00
C3       0.53448    0.13965    0.69171   1.00
H1       0.51747    0.17627    0.69005   1.00
C3a      0.57856    0.04511    0.69466   1.00
H1       0.59344    0.00688    0.69650   1.00
C3b      0.50877    0.08446    0.67817   1.00
C4       0.53065    0.03655    0.67959   1.00
O_3      0.40467    -0.08452   0.68754   1.00
C5       0.70660    0.12825    0.72251   1.00
H2       0.71898    0.10397    0.70971   1.00
C5       0.73900    0.12106    0.74205   1.00
H2       0.72780    0.18336    0.71900   1.00
H2       0.73249    0.06897    0.74246   1.00
H2       0.70909    0.12416    0.75500   1.00
C5       0.81496    0.17565    0.74409   1.00
H2       0.84301    0.17542    0.73029   1.00
H2       0.83810    0.16536    0.75756   1.00
H2       0.82165    0.22762    0.74629   1.00
C5       0.38386    -0.11109   0.72246   1.00
H2       0.33189    -0.15592   0.72035   1.00
H2       0.37825    -0.06494   0.72252   1.00
C5       0.41533    -0.11632   0.74261   1.00
H2       0.37897    -0.12669   0.75525   1.00
C5       0.38157    0.42132    0.58320   1.00
H2       0.32947    0.41212    0.58636   1.00
H2       0.37782    0.37055    0.58395   1.00
C5       0.40408    0.45242    0.56176   1.00
H2       0.38226    0.41193    0.54994   1.00
H2       0.46070    0.47997    0.56060   1.00
O_3      0.61457    0.53542    0.66284   1.00
C4       0.47578    0.49641    0.66591   1.00
C3c      0.44563    0.46301    0.64764   1.00
H1       0.44394    0.41570    0.64392   1.00
C3d      0.47658    0.55750    0.67061   1.00
C3       0.41818    0.49033    0.63381   1.00
O2       0.38222    0.45076    0.61749   1.00
C3       0.45047    0.58550    0.65669   1.00
H1       0.45439    0.63368    0.66063   1.00
C2       0.42046    0.55278    0.63805   1.00
C5       0.65804    0.60065    0.67110   1.00
H2       0.69316    0.59974    0.68278   1.00
H2       0.62809    0.62211    0.67820   1.00
C5       0.70057    0.64693    0.65386   1.00
H2       0.66545    0.64632    0.64192   1.00
H2       0.73072    0.62536    0.64700   1.00
C5       0.74777    0.71984    0.66142   1.00
H2       0.78265    0.72076    0.67345   1.00
H2       0.71761    0.74227    0.66763   1.00
H2       0.77951    0.75254    0.64870   1.00
C5       0.46521    0.57188    0.70434   1.00
C5       0.42602    0.46656    0.60058   1.00
H2       0.44786    0.51757    0.70785   1.00
H2       0.41951    0.57725    0.70156   1.00
H2       0.46748    0.45510    0.60407   1.00
H2       0.45083    0.52159    0.59621   1.00
H2       0.38522    0.48844    0.55824   1.00
H2       0.46811    0.53583    0.74621   1.00
H2       0.41311    0.57182    0.74208   1.00
C2       0.56690    0.41997    0.70750   1.00
C3       0.49641    0.39693    0.70864   1.00
O2       0.45983    0.36380    0.72578   1.00
C3       0.60523    0.46579    0.69178   1.00
H1       0.65892    0.48301    0.69017   1.00
C3a      0.46647    0.42118    0.69459   1.00
H1       0.41329    0.40609    0.69638   1.00
C3b      0.57576    0.49150    0.67824   1.00
C4       0.50590    0.46936    0.67959   1.00
O_3      0.51019    0.59499    0.68764   1.00
C5       0.42167    0.29287    0.72232   1.00
H2       0.38515    0.28053    0.70948   1.00
C5       0.38189    0.26012    0.74180   1.00
H2       0.45578    0.27190    0.71881   1.00
H2       0.33619    0.26643    0.74219   1.00
H2       0.41468    0.28994    0.75480   1.00
C5       0.36077    0.18421    0.74376   1.00
H2       0.33271    0.15627    0.72992   1.00
H2       0.32719    0.16080    0.75719   1.00
H2       0.40614    0.17769    0.74600   1.00
C5       0.50389    0.61528    0.72258   1.00
H2       0.51086    0.66720    0.72051   1.00
H2       0.55574    0.62110    0.72267   1.00
C5       0.46700    0.58347    0.74267   1.00
H2       0.49273    0.61970    0.75536   1.00
C5       0.29963    -0.30963   0.17889   1.00
H2       0.25921    -0.31409   0.16841   1.00
H2       0.28331    -0.30402   0.19431   1.00
C5       0.30487    -0.37511   0.17761   1.00
H2       0.26482    -0.41648   0.18707   1.00
H2       0.35592    -0.36439   0.18296   1.00
O_3      0.59297    0.00800    0.18807   1.00
C4       0.47599    -0.01994   0.16566   1.00
C3c      0.42502    -0.08527   0.17171   1.00
H1       0.40688    -0.09382   0.18719   1.00
C3d      0.49821    -0.00966   0.14534   1.00
C3       0.39741    -0.14057   0.15807   1.00
O2       0.34207    -0.20079   0.16438   1.00
C3       0.47176    -0.06490   0.13183   1.00
H1       0.49210    -0.05507   0.11659   1.00
C2       0.42072    -0.13146   0.13775   1.00
C5       0.65340    0.04214    0.17651   1.00
H2       0.69228    0.09052    0.18381   1.00
H2       0.64280    0.05445    0.16102   1.00
C5       0.68274    -0.00506   0.17467   1.00
H2       0.64320    -0.05414   0.16790   1.00
H2       0.69372    -0.01649   0.19021   1.00
C5       0.74756    0.02727    0.16166   1.00
H2       0.78710    0.07655    0.16826   1.00
H2       0.73619    0.03653    0.14594   1.00
H2       0.76910    -0.00732   0.16086   1.00
C5       0.52647    0.09511    0.13281   1.00
C5       0.36427    -0.24394   0.17270   1.00
H2       0.50119    0.10594    0.14558   1.00
H2       0.48928    0.07208    0.12009   1.00
H2       0.39712    -0.21935   0.18623   1.00
H2       0.39476    -0.25544   0.16168   1.00
H2       0.29658    -0.39519   0.16175   1.00
H2       0.55994    0.23477    0.13897   1.00
H2       0.52261    0.20198    0.11421   1.00
C2       0.56736    0.14843    0.20697   1.00
C3       0.50664    0.13319    0.19670   1.00
O2       0.48553    0.18069    0.19577   1.00
C3       0.59476    0.10497    0.20400   1.00
H1       0.64019    0.11422    0.21204   1.00
C3a      0.47600    0.07669    0.18346   1.00
H1       0.43174    0.06799    0.17484   1.00
C3b      0.56539    0.05013    0.19034   1.00
C4       0.50563    0.03566    0.17991   1.00
O_3      0.55183    0.05236    0.13902   1.00
C5       0.43240    0.16416    0.20978   1.00
H2       0.38762    0.11276    0.20660   1.00
C5       0.41119    0.21830    0.20758   1.00
H2       0.44996    0.16470    0.22561   1.00
H2       0.37738    0.20545    0.19408   1.00
H2       0.45807    0.26765    0.20414   1.00
C5       0.37543    0.22486    0.22665   1.00
H2       0.33198    0.17403    0.23078   1.00
H2       0.35573    0.26040    0.22386   1.00
H2       0.41150    0.24611    0.23974   1.00
C5       0.58689    0.16201    0.12565   1.00
H2       0.60476    0.15297    0.11085   1.00
H2       0.62939    0.17723    0.13667   1.00
C5       0.56881    0.21891    0.12377   1.00
H2       0.61161    0.26461    0.11654   1.00
C5       1.07619    0.37432    0.09676   1.00
H2       1.08124    0.41392    0.08584   1.00
H2       1.02298    0.33153    0.09520   1.00
C5       1.12737    0.35051    0.09115   1.00
H2       1.10696    0.31228    0.07867   1.00
H2       1.13763    0.32736    0.10462   1.00
O_3      1.01535    0.41356    0.19798   1.00
C4       1.02005    0.49716    0.16569   1.00
C3c      1.01803    0.46217    0.14788   1.00
H1       0.97323    0.41379    0.14447   1.00
C3d      1.07852    0.56059    0.16972   1.00
C3       1.07373    0.48828    0.13440   1.00
O2       1.06488    0.45547    0.11613   1.00
C3       1.13457    0.58609    0.15652   1.00
H1       1.17922    0.63376    0.16060   1.00
C2       1.13367    0.55101    0.13856   1.00
C5       1.05854    0.45117    0.21421   1.00
H2       1.03063    0.43979    0.22891   1.00
H2       1.08319    0.50713    0.21136   1.00
C5       1.11342    0.43153    0.21597   1.00
H2       1.14004    0.44110    0.20110   1.00
H2       1.08827    0.37570    0.21900   1.00
C5       1.16424    0.47206    0.23288   1.00
H2       1.13793    0.46312    0.24775   1.00
H2       1.19110    0.52766    0.22952   1.00
H2       1.20308    0.45594    0.23424   1.00
C5       1.05627    0.63684    0.18561   1.00
C5       1.08669    0.40704    0.11775   1.00
H2       1.00080    0.60641    0.18223   1.00
H2       1.08172    0.67524    0.17330   1.00
H2       1.05545    0.36763    0.12930   1.00
H2       1.14133    0.43059    0.12245   1.00
H2       1.17651    0.39394    0.08549   1.00
H2       0.96564    0.66743    0.20826   1.00
H2       1.02844    0.73977    0.19365   1.00
C2       0.85551    0.41682    0.20840   1.00
C3       0.85498    0.45562    0.19172   1.00
O2       0.81199    0.48236    0.19159   1.00
C3       0.90952    0.40265    0.20999   1.00
H1       0.91048    0.37161    0.22229   1.00
C3a      0.90861    0.48061    0.17745   1.00
H1       0.90950    0.51347    0.16542   1.00
C3b      0.96390    0.42940    0.19614   1.00
C4       0.96385    0.46884    0.17974   1.00
O_3      1.08514    0.59455    0.18777   1.00
C5       0.75499    0.44269    0.17911   1.00
H2       0.77081    0.44112    0.16317   1.00
C5       0.71066    0.47616    0.17950   1.00
H2       0.72494    0.38945    0.18491   1.00
H2       0.73320    0.52045    0.16893   1.00
H2       0.71443    0.49729    0.19501   1.00
C5       0.63560    0.42638    0.17393   1.00
H2       0.63316    0.40174    0.15913   1.00
H2       0.60637    0.45376    0.17271   1.00
H2       0.60973    0.38631    0.18583   1.00
C5       1.06584    0.67398    0.20565   1.00
H2       1.12075    0.71308    0.20728   1.00
H2       1.05331    0.63662    0.21820   1.00
C5       1.02072    0.70690    0.20707   1.00
H2       1.03417    0.73933    0.22086   1.00
C5       0.61058    0.66947    0.09038   1.00
H2       0.56522    0.63428    0.08126   1.00
H2       0.64821    0.65218    0.08817   1.00
C5       0.63966    0.74322    0.08248   1.00
H2       0.67215    0.75225    0.06885   1.00
H2       0.67071    0.78036    0.09450   1.00
O_3      0.60302    0.60689    0.19398   1.00
C4       0.50276    0.52291    0.16572   1.00
C3c      0.53197    0.54635    0.14651   1.00
H1       0.57574    0.54238    0.14199   1.00
C3d      0.44515    0.52766    0.17120   1.00
C3       0.50604    0.57601    0.13299   1.00
O2       0.53192    0.59008    0.11359   1.00
C3       0.42001    0.55836    0.15793   1.00
H1       0.37724    0.56308    0.16308   1.00
C2       0.44939    0.58301    0.13854   1.00
C5       0.57556    0.62384    0.21074   1.00
H2       0.58999    0.61037    0.22547   1.00
H2       0.51876    0.59727    0.20989   1.00
C5       0.60372    0.70041    0.21025   1.00
H2       0.59096    0.71413    0.19530   1.00
H2       0.66039    0.72641    0.21129   1.00
C5       0.57442    0.72297    0.22762   1.00
H2       0.58657    0.70900    0.24259   1.00
H2       0.51807    0.69887    0.22619   1.00
H2       0.59674    0.77925    0.22728   1.00
C5       0.36885    0.43996    0.19101   1.00
C5       0.58611    0.65823    0.11243   1.00
H2       0.39248    0.40824    0.18761   1.00
H2       0.32673    0.42688    0.17996   1.00
H2       0.62826    0.66587    0.12282   1.00
H2       0.57013    0.69590    0.11684   1.00
H2       0.59793    0.75295    0.07767   1.00
H2       0.33467    0.32472    0.21708   1.00
H2       0.26066    0.31890    0.20439   1.00
C2       0.58391    0.43930    0.20837   1.00
C3       0.53634    0.39683    0.19363   1.00
O2       0.50287    0.32687    0.19578   1.00
C3       0.60615    0.50986    0.20797   1.00
H1       0.64384    0.54401    0.21871   1.00
C3a      0.51101    0.42506    0.17934   1.00
H1       0.47174    0.39128    0.16890   1.00
C3b      0.57924    0.53741    0.19415   1.00
C4       0.53118    0.49496    0.17971   1.00
O_3      0.41769    0.51010    0.19049   1.00
C5       0.53230    0.29865    0.18299   1.00
H2       0.52944    0.31085    0.16673   1.00
C5       0.49181    0.22128    0.18599   1.00
H2       0.58677    0.31813    0.18701   1.00
H2       0.44386    0.20035    0.17701   1.00
H2       0.47643    0.21157    0.20224   1.00
C5       0.53242    0.18591    0.18002   1.00
H2       0.55194    0.20050    0.16428   1.00
H2       0.49954    0.12944    0.18078   1.00
H2       0.57606    0.19993    0.19060   1.00
C5       0.33923    0.42333    0.21234   1.00
H2       0.30572    0.44582    0.21442   1.00
H2       0.38197    0.44917    0.22336   1.00
C5       0.29964    0.34600    0.21637   1.00
H2       0.27291    0.33548    0.23120   1.00
C5       0.35571    0.64504    0.65409   1.00
H2       0.34938    0.60236    0.66389   1.00
H2       0.36037    0.63037    0.63835   1.00
C5       0.29217    0.65339    0.65608   1.00
H2       0.24988    0.61586    0.64632   1.00
H2       0.30513    0.70586    0.65153   1.00
O_3      0.67969    0.93087    0.64708   1.00
C4       0.64669    0.80929    0.66767   1.00
C3c      0.58052    0.76125    0.66135   1.00
H1       0.57130    0.74543    0.64565   1.00
C3d      0.65781    0.82848    0.68825   1.00
C3       0.52527    0.73368    0.67501   1.00
O2       0.46386    0.68097    0.66830   1.00
C3       0.60267    0.80211    0.70181   1.00
H1       0.61325    0.82016    0.71729   1.00
C2       0.53530    0.75405    0.69562   1.00
C5       0.71594    0.98929    0.65936   1.00
H2       0.76500    1.02777    0.65230   1.00
H2       0.72741    0.97554    0.67453   1.00
C5       0.67139    1.02130    0.66216   1.00
H2       0.62162    0.98226    0.66869   1.00
H2       0.66079    1.03540    0.64694   1.00
C5       0.70610    1.08407    0.67599   1.00
H2       0.75606    1.12308    0.66963   1.00
H2       0.71456    1.06964    0.69140   1.00
H2       0.67345    1.10765    0.67749   1.00
C5       0.76129    0.85041    0.70028   1.00
C5       0.42291    0.70700    0.66079   1.00
H2       0.77060    0.82594    0.68698   1.00
H2       0.73701    0.81161    0.71255   1.00
H2       0.44849    0.74142    0.64762   1.00
H2       0.41321    0.73709    0.67243   1.00
H2       0.27219    0.64352    0.67196   1.00
H2       0.89902    0.87876    0.69339   1.00
H2       0.86524    0.83850    0.71778   1.00
C2       0.81527    0.90067    0.62644   1.00
C3       0.79742    0.83781    0.63577   1.00
O2       0.84267    0.81377    0.63588   1.00
C3       0.77427    0.93037    0.63028   1.00
H1       0.78552    0.97756    0.62297   1.00
C3a      0.74085    0.80725    0.64898   1.00
H1       0.73019    0.76114    0.65690   1.00
C3b      0.71938    0.90097    0.64393   1.00
C4       0.70233    0.83901    0.65344   1.00
O_3      0.72088    0.87934    0.69493   1.00
C5       0.82394    0.76235    0.62111   1.00
H2       0.77164    0.71858    0.62398   1.00
C5       0.87564    0.73769    0.62242   1.00
H2       0.82533    0.78263    0.60560   1.00
H2       0.86146    0.70174    0.63543   1.00
H2       0.92605    0.78271    0.62622   1.00
C5       0.88027    0.70365    0.60269   1.00
H2       0.82859    0.66231    0.59828   1.00
H2       0.91393    0.68137    0.60479   1.00
H2       0.90276    0.74145    0.59005   1.00
C5       0.82946    0.90787    0.70786   1.00
H2       0.82153    0.92438    0.72304   1.00
H2       0.84638    0.95223    0.69745   1.00
C5       0.88401    0.88634    0.70888   1.00
H2       0.93066    0.92680    0.71643   1.00
C5       0.42869    0.59709    0.67233   1.00
H2       0.40849    0.63276    0.67168   1.00
H2       0.44374    0.59335    0.65655   1.00
C5       0.49148    0.62652    0.68653   1.00
H2       0.53811    0.66514    0.67846   1.00
H2       0.49984    0.58483    0.69207   1.00
O_3      0.19433    0.24908    0.67227   1.00
C4       0.16276    0.35376    0.66750   1.00
C3c      0.22516    0.41350    0.66389   1.00
H1       0.25370    0.41775    0.65029   1.00
C3d      0.12590    0.34965    0.68517   1.00
C3       0.25217    0.46806    0.67779   1.00
O2       0.30912    0.52791    0.67207   1.00
C3       0.15327    0.40335    0.69923   1.00
H1       0.12433    0.39689    0.71291   1.00
C2       0.21667    0.46382    0.69592   1.00
C5       0.15568    0.20255    0.68773   1.00
H2       0.12793    0.14886    0.68218   1.00
H2       0.11756    0.21478    0.69424   1.00
C5       0.20479    0.20816    0.70433   1.00
H2       0.23391    0.26221    0.70948   1.00
H2       0.24221    0.19522    0.69771   1.00
C5       0.16655    0.16078    0.72215   1.00
H2       0.13697    0.10677    0.71709   1.00
H2       0.13088    0.17517    0.72922   1.00
H2       0.20339    0.16447    0.73393   1.00
C5       0.01042    0.29001    0.68109   1.00
C5       0.36852    0.52858    0.67902   1.00
H2       0.01444    0.29140    0.66427   1.00
H2       0.00549    0.33431    0.68623   1.00
H2       0.37231    0.48568    0.67205   1.00
H2       0.36894    0.52290    0.69587   1.00
H2       0.48476    0.65330    0.69981   1.00
H2       -0.10899   0.19626    0.65826   1.00
H2       -0.12311   0.25430    0.67384   1.00
C2       0.08170    0.18316    0.62697   1.00
C3       0.06815    0.23684    0.62365   1.00
O2       0.01616    0.22789    0.61083   1.00
C3       0.12503    0.18902    0.64325   1.00
H1       0.13783    0.14963    0.64588   1.00
C3a      0.09632    0.29362    0.63681   1.00
H1       0.08232    0.33242    0.63477   1.00
C3b      0.15120    0.24449    0.65669   1.00
C4       0.13682    0.29732    0.65357   1.00
O_3      0.06683    0.29004    0.69019   1.00
C5       0.04298    0.25940    0.59197   1.00
H2       0.07883    0.31526    0.59380   1.00
C5       -0.01745   0.24823    0.57881   1.00
H2       0.07056    0.23624    0.58439   1.00
H2       -0.03280   0.28600    0.58336   1.00
H2       -0.06113   0.19693    0.58259   1.00
C5       -0.00169   0.25371    0.55590   1.00
H2       0.04521    0.30303    0.55266   1.00
H2       -0.04462   0.25105    0.54694   1.00
H2       0.00532    0.21072    0.55058   1.00
C5       -0.05329   0.22430    0.68732   1.00
H2       -0.06371   0.22827    0.70363   1.00
H2       -0.04229   0.18168    0.68604   1.00
C5       -0.11526   0.20956    0.67412   1.00
H2       -0.16209   0.16544    0.68040   1.00
C5       0.17836    0.57554    0.67022   1.00
H2       0.23455    0.59764    0.67013   1.00
H2       0.16172    0.56204    0.65421   1.00
C5       0.14523    0.51096    0.68371   1.00
H2       0.13996    0.46603    0.67525   1.00
H2       0.09389    0.50006    0.68882   1.00
O_3      0.05283    0.80026    0.67106   1.00
C4       0.19099    0.83727    0.66751   1.00
C3c      0.19129    0.77655    0.66343   1.00
H1       0.16935    0.74936    0.64945   1.00
C3d      0.22072    0.87243    0.68568   1.00
C3       0.21881    0.74949    0.67732   1.00
O2       0.22482    0.69461    0.67121   1.00
C3       0.24699    0.84493    0.69971   1.00
H1       0.26707    0.87244    0.71375   1.00
C2       0.24703    0.78320    0.69592   1.00
C5       0.04133    0.83581    0.68673   1.00
H2       0.01443    0.86263    0.68120   1.00
H2       0.09031    0.87433    0.69388   1.00
C5       -0.00298   0.78392    0.70264   1.00
H2       0.02302    0.75578    0.70776   1.00
H2       -0.05197   0.74610    0.69539   1.00
C5       -0.01601   0.81872    0.72066   1.00
H2       -0.04154   0.84731    0.71564   1.00
H2       0.03269    0.85475    0.72834   1.00
H2       -0.04971   0.77985    0.73192   1.00
C5       0.27337    0.98820    0.68285   1.00
C5       0.16656    0.63323    0.67729   1.00
H2       0.27288    0.98628    0.66599   1.00
H2       0.32273    0.99436    0.68837   1.00
H2       0.11997    0.62852    0.66996   1.00
H2       0.15833    0.63045    0.69407   1.00
H2       0.17750    0.51721    0.69727   1.00
H2       0.29734    1.10895    0.66110   1.00
H2       0.36843    1.12371    0.67729   1.00
C2       0.10125    0.91807    0.62696   1.00
C3       0.16963    0.93447    0.62423   1.00
O2       0.21290    0.98870    0.61211   1.00
C3       0.06288    0.87210    0.64264   1.00
H1       0.00990    0.85714    0.64479   1.00
C3a      0.19837    0.90640    0.63738   1.00
H1       0.25186    0.92249    0.63583   1.00
C3b      0.09222    0.84600    0.65609   1.00
C4       0.16050    0.86317    0.65356   1.00
O_3      0.21712    0.92957    0.69112   1.00
C5       0.22106    0.96502    0.59310   1.00
H2       0.24272    0.93052    0.59482   1.00
C5       0.27037    1.02780    0.58075   1.00
H2       0.17138    0.93694    0.58496   1.00
H2       0.32333    1.04439    0.58580   1.00
H2       0.26033    1.06975    0.58480   1.00
C5       0.26330    1.01485    0.55768   1.00
H2       0.26810    0.96947    0.55411   1.00
H2       0.30365    1.05962    0.54933   1.00
H2       0.21326    1.00664    0.55195   1.00
C5       0.26795    1.04967    0.68952   1.00
H2       0.28022    1.05839    0.70599   1.00
H2       0.21389    1.03690    0.68778   1.00
C5       0.31512    1.11388    0.67712   1.00
H2       0.31520    1.15902    0.68376   1.00
