data_IRMOF10_interpen_symm_ligand1cp_symm_j

_audit_creation_method             'generated by an auxiliary program of Tobunporous'

_symmetry_space_group_name_H-M     'P 1'
_symmetry_Int_Tables_number        1
_symmetry_cell_setting             triclinic

_cell_length_a                    22.6523
_cell_length_b                    22.6523
_cell_length_c                    65.9502
_cell_angle_alpha                 90.0000
_cell_angle_beta                  90.0000
_cell_angle_gamma                 120.0000

loop_
_atom_site_label
_atom_site_fract_x
_atom_site_fract_y
_atom_site_fract_z
_atom_site_occupancy
O1       0.00000    0.00000    0.57470   1.00
Zn      0.00000    0.00000    0.54560   1.00
Zn      0.94843    0.04287    0.58357   1.00
Zn      0.09443    0.05157    0.58357   1.00
Zn      0.95713    0.90557    0.58357   1.00
O2       0.93860    0.02610    0.53560   1.00
O2       0.08750    0.06140    0.53560   1.00
O2       0.97390    0.91250    0.53560   1.00
O2       0.91300    0.07160    0.56150   1.00
O2       0.00463    0.12027    0.60077   1.00
O2       0.87413    0.98077    0.60037   1.00
O2       0.15860    0.08700    0.56150   1.00
O2       0.10663    0.12587    0.60037   1.00
O2       0.11563    0.99537    0.60077   1.00
O2       0.92840    0.84140    0.56150   1.00
O2       0.87973    0.88437    0.60077   1.00
O2       0.01923    0.89337    0.60037   1.00
C1       0.91390    0.06020    0.54330   1.00
C1       0.14630    0.08610    0.54330   1.00
C1       0.93980    0.85370    0.54330   1.00
C1       0.06663    0.14397    0.60637   1.00
C1       0.85603    0.92267    0.60637   1.00
C1       0.07733    0.93337    0.60637   1.00
O1       0.00000    0.00000    0.92530   1.00
Zn      0.00000    0.00000    0.95440   1.00
Zn      0.04287    0.94843    0.91643   1.00
Zn      0.05157    0.09443    0.91643   1.00
Zn      0.90557    0.95713    0.91643   1.00
O2       0.02610    0.93860    0.96440   1.00
O2       0.06140    0.08750    0.96440   1.00
O2       0.91250    0.97390    0.96440   1.00
O2       0.07160    0.91300    0.93850   1.00
O2       0.12027    0.00463    0.89923   1.00
O2       0.98077    0.87413    0.89963   1.00
O2       0.08700    0.15860    0.93850   1.00
O2       0.12587    0.10663    0.89963   1.00
O2       0.99537    0.11563    0.89923   1.00
O2       0.84140    0.92840    0.93850   1.00
O2       0.88437    0.87973    0.89923   1.00
O2       0.89337    0.01923    0.89963   1.00
C1       0.06020    0.91390    0.95670   1.00
C1       0.08610    0.14630    0.95670   1.00
C1       0.85370    0.93980    0.95670   1.00
C1       0.14397    0.06663    0.89363   1.00
C1       0.92267    0.85603    0.89363   1.00
C1       0.93337    0.07733    0.89363   1.00
O1       0.00000    0.00000    0.42530   1.00
Zn      0.00000    0.00000    0.45440   1.00
Zn      0.05157    0.95713    0.41643   1.00
Zn      0.90557    0.94843    0.41643   1.00
Zn      0.04287    0.09443    0.41643   1.00
O2       0.06140    0.97390    0.46440   1.00
O2       0.91250    0.93860    0.46440   1.00
O2       0.02610    0.08750    0.46440   1.00
O2       0.08700    0.92840    0.43850   1.00
O2       0.99537    0.87973    0.39923   1.00
O2       0.12587    0.01923    0.39963   1.00
O2       0.84140    0.91300    0.43850   1.00
O2       0.89337    0.87413    0.39963   1.00
O2       0.88437    0.00463    0.39923   1.00
O2       0.07160    0.15860    0.43850   1.00
O2       0.12027    0.11563    0.39923   1.00
O2       0.98077    0.10663    0.39963   1.00
C1       0.08610    0.93980    0.45670   1.00
C1       0.85370    0.91390    0.45670   1.00
C1       0.06020    0.14630    0.45670   1.00
C1       0.93337    0.85603    0.39363   1.00
C1       0.14397    0.07733    0.39363   1.00
C1       0.92267    0.06663    0.39363   1.00
O1       0.00000    0.00000    0.07470   1.00
Zn      0.00000    0.00000    0.04560   1.00
Zn      0.95713    0.05157    0.08357   1.00
Zn      0.94843    0.90557    0.08357   1.00
Zn      0.09443    0.04287    0.08357   1.00
O2       0.97390    0.06140    0.03560   1.00
O2       0.93860    0.91250    0.03560   1.00
O2       0.08750    0.02610    0.03560   1.00
O2       0.92840    0.08700    0.06150   1.00
O2       0.87973    0.99537    0.10077   1.00
O2       0.01923    0.12587    0.10037   1.00
O2       0.91300    0.84140    0.06150   1.00
O2       0.87413    0.89337    0.10037   1.00
O2       0.00463    0.88437    0.10077   1.00
O2       0.15860    0.07160    0.06150   1.00
O2       0.11563    0.12027    0.10077   1.00
O2       0.10663    0.98077    0.10037   1.00
C1       0.93980    0.08610    0.04330   1.00
C1       0.91390    0.85370    0.04330   1.00
C1       0.14630    0.06020    0.04330   1.00
C1       0.85603    0.93337    0.10637   1.00
C1       0.07733    0.14397    0.10637   1.00
C1       0.06663    0.92267    0.10637   1.00
O1       0.66667    0.33333    0.90803   1.00
Zn      0.66667    0.33333    0.87893   1.00
Zn      0.61510    0.37620    0.91690   1.00
Zn      0.76110    0.38490    0.91690   1.00
Zn      0.62380    0.23890    0.91690   1.00
O2       0.60527    0.35943    0.86893   1.00
O2       0.75417    0.39473    0.86893   1.00
O2       0.64057    0.24583    0.86893   1.00
O2       0.57967    0.40493    0.89483   1.00
O2       0.67130    0.45360    0.93410   1.00
O2       0.54080    0.31410    0.93370   1.00
O2       0.82527    0.42033    0.89483   1.00
O2       0.77330    0.45920    0.93370   1.00
O2       0.78230    0.32870    0.93410   1.00
O2       0.59507    0.17473    0.89483   1.00
O2       0.54640    0.21770    0.93410   1.00
O2       0.68590    0.22670    0.93370   1.00
C1       0.58057    0.39353    0.87663   1.00
C1       0.81297    0.41943    0.87663   1.00
C1       0.60647    0.18703    0.87663   1.00
C1       0.73330    0.47730    0.93970   1.00
C1       0.52270    0.25600    0.93970   1.00
C1       0.74400    0.26670    0.93970   1.00
O1       0.66667    0.33333    0.25863   1.00
Zn      0.66667    0.33333    0.28773   1.00
Zn      0.70953    0.28177    0.24977   1.00
Zn      0.71823    0.42777    0.24977   1.00
Zn      0.57223    0.29047    0.24977   1.00
O2       0.69277    0.27193    0.29773   1.00
O2       0.72807    0.42083    0.29773   1.00
O2       0.57917    0.30723    0.29773   1.00
O2       0.73827    0.24633    0.27183   1.00
O2       0.78693    0.33797    0.23257   1.00
O2       0.64743    0.20747    0.23297   1.00
O2       0.75367    0.49193    0.27183   1.00
O2       0.79253    0.43997    0.23297   1.00
O2       0.66203    0.44897    0.23257   1.00
O2       0.50807    0.26173    0.27183   1.00
O2       0.55103    0.21307    0.23257   1.00
O2       0.56003    0.35257    0.23297   1.00
C1       0.72687    0.24723    0.29003   1.00
C1       0.75277    0.47963    0.29003   1.00
C1       0.52037    0.27313    0.29003   1.00
C1       0.81063    0.39997    0.22697   1.00
C1       0.58933    0.18937    0.22697   1.00
C1       0.60003    0.41067    0.22697   1.00
O1       0.66667    0.33333    0.75863   1.00
Zn      0.66667    0.33333    0.78773   1.00
Zn      0.71823    0.29047    0.74977   1.00
Zn      0.57223    0.28177    0.74977   1.00
Zn      0.70953    0.42777    0.74977   1.00
O2       0.72807    0.30723    0.79773   1.00
O2       0.57917    0.27193    0.79773   1.00
O2       0.69277    0.42083    0.79773   1.00
O2       0.75367    0.26173    0.77183   1.00
O2       0.66203    0.21307    0.73257   1.00
O2       0.79253    0.35257    0.73297   1.00
O2       0.50807    0.24633    0.77183   1.00
O2       0.56003    0.20747    0.73297   1.00
O2       0.55103    0.33797    0.73257   1.00
O2       0.73827    0.49193    0.77183   1.00
O2       0.78693    0.44897    0.73257   1.00
O2       0.64743    0.43997    0.73297   1.00
C1       0.75277    0.27313    0.79003   1.00
C1       0.52037    0.24723    0.79003   1.00
C1       0.72687    0.47963    0.79003   1.00
C1       0.60003    0.18937    0.72697   1.00
C1       0.81063    0.41067    0.72697   1.00
C1       0.58933    0.39997    0.72697   1.00
O1       0.66667    0.33333    0.40803   1.00
Zn      0.66667    0.33333    0.37893   1.00
Zn      0.62380    0.38490    0.41690   1.00
Zn      0.61510    0.23890    0.41690   1.00
Zn      0.76110    0.37620    0.41690   1.00
O2       0.64057    0.39473    0.36893   1.00
O2       0.60527    0.24583    0.36893   1.00
O2       0.75417    0.35943    0.36893   1.00
O2       0.59507    0.42033    0.39483   1.00
O2       0.54640    0.32870    0.43410   1.00
O2       0.68590    0.45920    0.43370   1.00
O2       0.57967    0.17473    0.39483   1.00
O2       0.54080    0.22670    0.43370   1.00
O2       0.67130    0.21770    0.43410   1.00
O2       0.82527    0.40493    0.39483   1.00
O2       0.78230    0.45360    0.43410   1.00
O2       0.77330    0.31410    0.43370   1.00
C1       0.60647    0.41943    0.37663   1.00
C1       0.58057    0.18703    0.37663   1.00
C1       0.81297    0.39353    0.37663   1.00
C1       0.52270    0.26670    0.43970   1.00
C1       0.74400    0.47730    0.43970   1.00
C1       0.73330    0.25600    0.43970   1.00
O1       0.33333    0.66667    0.24137   1.00
Zn      0.33333    0.66667    0.21227   1.00
Zn      0.28177    0.70953    0.25023   1.00
Zn      0.42777    0.71823    0.25023   1.00
Zn      0.29047    0.57223    0.25023   1.00
O2       0.27193    0.69277    0.20227   1.00
O2       0.42083    0.72807    0.20227   1.00
O2       0.30723    0.57917    0.20227   1.00
O2       0.24633    0.73827    0.22817   1.00
O2       0.33797    0.78693    0.26743   1.00
O2       0.20747    0.64743    0.26703   1.00
O2       0.49193    0.75367    0.22817   1.00
O2       0.43997    0.79253    0.26703   1.00
O2       0.44897    0.66203    0.26743   1.00
O2       0.26173    0.50807    0.22817   1.00
O2       0.21307    0.55103    0.26743   1.00
O2       0.35257    0.56003    0.26703   1.00
C1       0.24723    0.72687    0.20997   1.00
C1       0.47963    0.75277    0.20997   1.00
C1       0.27313    0.52037    0.20997   1.00
C1       0.39997    0.81063    0.27303   1.00
C1       0.18937    0.58933    0.27303   1.00
C1       0.41067    0.60003    0.27303   1.00
O1       0.33333    0.66667    0.59197   1.00
Zn      0.33333    0.66667    0.62107   1.00
Zn      0.37620    0.61510    0.58310   1.00
Zn      0.38490    0.76110    0.58310   1.00
Zn      0.23890    0.62380    0.58310   1.00
O2       0.35943    0.60527    0.63107   1.00
O2       0.39473    0.75417    0.63107   1.00
O2       0.24583    0.64057    0.63107   1.00
O2       0.40493    0.57967    0.60517   1.00
O2       0.45360    0.67130    0.56590   1.00
O2       0.31410    0.54080    0.56630   1.00
O2       0.42033    0.82527    0.60517   1.00
O2       0.45920    0.77330    0.56630   1.00
O2       0.32870    0.78230    0.56590   1.00
O2       0.17473    0.59507    0.60517   1.00
O2       0.21770    0.54640    0.56590   1.00
O2       0.22670    0.68590    0.56630   1.00
C1       0.39353    0.58057    0.62337   1.00
C1       0.41943    0.81297    0.62337   1.00
C1       0.18703    0.60647    0.62337   1.00
C1       0.47730    0.73330    0.56030   1.00
C1       0.25600    0.52270    0.56030   1.00
C1       0.26670    0.74400    0.56030   1.00
O1       0.33333    0.66667    0.09197   1.00
Zn      0.33333    0.66667    0.12107   1.00
Zn      0.38490    0.62380    0.08310   1.00
Zn      0.23890    0.61510    0.08310   1.00
Zn      0.37620    0.76110    0.08310   1.00
O2       0.39473    0.64057    0.13107   1.00
O2       0.24583    0.60527    0.13107   1.00
O2       0.35943    0.75417    0.13107   1.00
O2       0.42033    0.59507    0.10517   1.00
O2       0.32870    0.54640    0.06590   1.00
O2       0.45920    0.68590    0.06630   1.00
O2       0.17473    0.57967    0.10517   1.00
O2       0.22670    0.54080    0.06630   1.00
O2       0.21770    0.67130    0.06590   1.00
O2       0.40493    0.82527    0.10517   1.00
O2       0.45360    0.78230    0.06590   1.00
O2       0.31410    0.77330    0.06630   1.00
C1       0.41943    0.60647    0.12337   1.00
C1       0.18703    0.58057    0.12337   1.00
C1       0.39353    0.81297    0.12337   1.00
C1       0.26670    0.52270    0.06030   1.00
C1       0.47730    0.74400    0.06030   1.00
C1       0.25600    0.73330    0.06030   1.00
O1       0.33333    0.66667    0.74137   1.00
Zn      0.33333    0.66667    0.71227   1.00
Zn      0.29047    0.71823    0.75023   1.00
Zn      0.28177    0.57223    0.75023   1.00
Zn      0.42777    0.70953    0.75023   1.00
O2       0.30723    0.72807    0.70227   1.00
O2       0.27193    0.57917    0.70227   1.00
O2       0.42083    0.69277    0.70227   1.00
O2       0.26173    0.75367    0.72817   1.00
O2       0.21307    0.66203    0.76743   1.00
O2       0.35257    0.79253    0.76703   1.00
O2       0.24633    0.50807    0.72817   1.00
O2       0.20747    0.56003    0.76703   1.00
O2       0.33797    0.55103    0.76743   1.00
O2       0.49193    0.73827    0.72817   1.00
O2       0.44897    0.78693    0.76743   1.00
O2       0.43997    0.64743    0.76703   1.00
C1       0.27313    0.75277    0.70997   1.00
C1       0.24723    0.52037    0.70997   1.00
C1       0.47963    0.72687    0.70997   1.00
C1       0.18937    0.60003    0.77303   1.00
C1       0.41067    0.81063    0.77303   1.00
C1       0.39997    0.58933    0.77303   1.00
C2       0.78834    0.54210    0.45284   1.00
C3       0.78394    0.59825    0.45121   1.00
H1       0.76288    0.60370    0.43984   1.00
C3       0.81762    0.53434    0.46986   1.00
H1       0.82032    0.49495    0.47145   1.00
C4       0.80913    0.64859    0.46574   1.00
C5       0.80380    0.71274    0.46395   1.00
H2       0.76080    0.70413    0.46931   1.00
H2       0.80707    0.72553    0.44994   1.00
H2       0.84016    0.74901    0.47142   1.00
C4       0.84346    0.58341    0.48486   1.00
C5       0.87540    0.57320    0.50444   1.00
H2       0.92382    0.59458    0.50288   1.00
H2       0.85666    0.52542    0.50696   1.00
H2       0.86524    0.59352    0.51570   1.00
C6       0.83832    0.64090    0.48309   1.00
C6       0.86487    0.69334    0.49929   1.00
C4       0.82223    0.69184    0.51461   1.00
C5       0.75202    0.63310    0.51632   1.00
H2       0.72130    0.64258    0.50888   1.00
H2       0.73882    0.62556    0.53025   1.00
H2       0.75076    0.59308    0.51081   1.00
C4       0.93295    0.74420    0.49823   1.00
C5       0.98196    0.74902    0.48153   1.00
H2       0.00283    0.72258    0.48532   1.00
H2       0.01665    0.79572    0.47968   1.00
H2       0.95721    0.73143    0.46913   1.00
C3       0.84794    0.74345    0.52893   1.00
H1       0.81976    0.74203    0.53943   1.00
C3       0.95523    0.79690    0.51341   1.00
H1       0.00011    0.83244    0.51301   1.00
C2       0.91370    0.79640    0.52810   1.00
C2       0.45790    0.24624    0.45284   1.00
C3       0.40175    0.18569    0.45121   1.00
H1       0.39630    0.15918    0.43984   1.00
C3       0.46566    0.28328    0.46986   1.00
H1       0.50505    0.32537    0.47145   1.00
C4       0.35141    0.16054    0.46574   1.00
C5       0.28726    0.09106    0.46395   1.00
H2       0.29587    0.05667    0.46931   1.00
H2       0.27447    0.08154    0.44994   1.00
H2       0.25099    0.09115    0.47142   1.00
C4       0.41659    0.26005    0.48486   1.00
C5       0.42680    0.30220    0.50444   1.00
H2       0.40542    0.32924    0.50288   1.00
H2       0.47458    0.33124    0.50696   1.00
H2       0.40648    0.27172    0.51570   1.00
C6       0.35910    0.19742    0.48309   1.00
C6       0.30666    0.17153    0.49929   1.00
C4       0.30816    0.13039    0.51461   1.00
C5       0.36690    0.11892    0.51632   1.00
H2       0.35742    0.07872    0.50888   1.00
H2       0.37444    0.11326    0.53025   1.00
H2       0.40692    0.15768    0.51081   1.00
C4       0.25580    0.18875    0.49823   1.00
C5       0.25098    0.23294    0.48153   1.00
H2       0.27742    0.28025    0.48532   1.00
H2       0.20428    0.22093    0.47968   1.00
H2       0.26857    0.22578    0.46913   1.00
C3       0.25655    0.10449    0.52893   1.00
H1       0.25797    0.07773    0.53943   1.00
C3       0.20310    0.15833    0.51341   1.00
H1       0.16756    0.16767    0.51301   1.00
C2       0.20360    0.11730    0.52810   1.00
C2       0.75376    0.21166    0.45284   1.00
C3       0.81431    0.21606    0.45121   1.00
H1       0.84082    0.23712    0.43984   1.00
C3       0.71672    0.18238    0.46986   1.00
H1       0.67463    0.17968    0.47145   1.00
C4       0.83946    0.19087    0.46574   1.00
C5       0.90894    0.19620    0.46395   1.00
H2       0.94333    0.23920    0.46931   1.00
H2       0.91846    0.19293    0.44994   1.00
H2       0.90885    0.15984    0.47142   1.00
C4       0.73995    0.15654    0.48486   1.00
C5       0.69780    0.12460    0.50444   1.00
H2       0.67076    0.07618    0.50288   1.00
H2       0.66876    0.14334    0.50696   1.00
H2       0.72828    0.13476    0.51570   1.00
C6       0.80258    0.16168    0.48309   1.00
C6       0.82847    0.13513    0.49929   1.00
C4       0.86961    0.17777    0.51461   1.00
C5       0.88108    0.24798    0.51632   1.00
H2       0.92128    0.27870    0.50888   1.00
H2       0.88674    0.26118    0.53025   1.00
H2       0.84232    0.24924    0.51081   1.00
C4       0.81125    0.06705    0.49823   1.00
C5       0.76706    0.01804    0.48153   1.00
H2       0.71975    -0.00283   0.48532   1.00
H2       0.77907    -0.01665   0.47968   1.00
H2       0.77422    0.04279    0.46913   1.00
C3       0.89551    0.15206    0.52893   1.00
H1       0.92227    0.18024    0.53943   1.00
C3       0.84167    0.04477    0.51341   1.00
H1       0.83233    -0.00011   0.51301   1.00
C2       0.88270    0.08630    0.52810   1.00
C2       0.54210    0.78834    0.04716   1.00
C3       0.59825    0.78394    0.04879   1.00
H1       0.60370    0.76288    0.06016   1.00
C3       0.53434    0.81762    0.03014   1.00
H1       0.49495    0.82032    0.02855   1.00
C4       0.64859    0.80913    0.03426   1.00
C5       0.71274    0.80380    0.03605   1.00
H2       0.70413    0.76080    0.03069   1.00
H2       0.72553    0.80707    0.05006   1.00
H2       0.74901    0.84016    0.02858   1.00
C4       0.58341    0.84346    0.01514   1.00
C5       0.57320    0.87540    0.99556   1.00
H2       0.59458    0.92382    0.99712   1.00
H2       0.52542    0.85666    0.99304   1.00
H2       0.59352    0.86524    0.98430   1.00
C6       0.64090    0.83832    0.01691   1.00
C6       0.69334    0.86487    0.00071   1.00
C4       0.69184    0.82223    0.98539   1.00
C5       0.63310    0.75202    0.98368   1.00
H2       0.64258    0.72130    0.99112   1.00
H2       0.62556    0.73882    0.96975   1.00
H2       0.59308    0.75076    0.98919   1.00
C4       0.74420    0.93295    0.00177   1.00
C5       0.74902    0.98196    0.01847   1.00
H2       0.72258    0.00283    0.01468   1.00
H2       0.79572    0.01665    0.02032   1.00
H2       0.73143    0.95721    0.03087   1.00
C3       0.74345    0.84794    0.97107   1.00
H1       0.74203    0.81976    0.96057   1.00
C3       0.79690    0.95523    0.98659   1.00
H1       0.83244    0.00011    0.98699   1.00
C2       0.79640    0.91370    0.97190   1.00
C2       0.24624    0.45790    0.04716   1.00
C3       0.18569    0.40175    0.04879   1.00
H1       0.15918    0.39630    0.06016   1.00
C3       0.28328    0.46566    0.03014   1.00
H1       0.32537    0.50505    0.02855   1.00
C4       0.16054    0.35141    0.03426   1.00
C5       0.09106    0.28726    0.03605   1.00
H2       0.05667    0.29587    0.03069   1.00
H2       0.08154    0.27447    0.05006   1.00
H2       0.09115    0.25099    0.02858   1.00
C4       0.26005    0.41659    0.01514   1.00
C5       0.30220    0.42680    0.99556   1.00
H2       0.32924    0.40542    0.99712   1.00
H2       0.33124    0.47458    0.99304   1.00
H2       0.27172    0.40648    0.98430   1.00
C6       0.19742    0.35910    0.01691   1.00
C6       0.17153    0.30666    0.00071   1.00
C4       0.13039    0.30816    0.98539   1.00
C5       0.11892    0.36690    0.98368   1.00
H2       0.07872    0.35742    0.99112   1.00
H2       0.11326    0.37444    0.96975   1.00
H2       0.15768    0.40692    0.98919   1.00
C4       0.18875    0.25580    0.00177   1.00
C5       0.23294    0.25098    0.01847   1.00
H2       0.28025    0.27742    0.01468   1.00
H2       0.22093    0.20428    0.02032   1.00
H2       0.22578    0.26857    0.03087   1.00
C3       0.10449    0.25655    0.97107   1.00
H1       0.07773    0.25797    0.96057   1.00
C3       0.15833    0.20310    0.98659   1.00
H1       0.16767    0.16756    0.98699   1.00
C2       0.11730    0.20360    0.97190   1.00
C2       0.21166    0.75376    0.04716   1.00
C3       0.21606    0.81431    0.04879   1.00
H1       0.23712    0.84082    0.06016   1.00
C3       0.18238    0.71672    0.03014   1.00
H1       0.17968    0.67463    0.02855   1.00
C4       0.19087    0.83946    0.03426   1.00
C5       0.19620    0.90894    0.03605   1.00
H2       0.23920    0.94333    0.03069   1.00
H2       0.19293    0.91846    0.05006   1.00
H2       0.15984    0.90885    0.02858   1.00
C4       0.15654    0.73995    0.01514   1.00
C5       0.12460    0.69780    0.99556   1.00
H2       0.07618    0.67076    0.99712   1.00
H2       0.14334    0.66876    0.99304   1.00
H2       0.13476    0.72828    0.98430   1.00
C6       0.16168    0.80258    0.01691   1.00
C6       0.13513    0.82847    0.00071   1.00
C4       0.17777    0.86961    0.98539   1.00
C5       0.24798    0.88108    0.98368   1.00
H2       0.27870    0.92128    0.99112   1.00
H2       0.26118    0.88674    0.96975   1.00
H2       0.24924    0.84232    0.98919   1.00
C4       0.06705    0.81125    0.00177   1.00
C5       0.01804    0.76706    0.01847   1.00
H2       -0.00283   0.71975    0.01468   1.00
H2       -0.01665   0.77907    0.02032   1.00
H2       0.04279    0.77422    0.03087   1.00
C3       0.15206    0.89551    0.97107   1.00
H1       0.18024    0.92227    0.96057   1.00
C3       0.04477    0.84167    0.98659   1.00
H1       -0.00011   0.83233    0.98699   1.00
C2       0.08630    0.88270    0.97190   1.00
C2       0.21166    0.45790    0.54716   1.00
C3       0.21606    0.40175    0.54879   1.00
H1       0.23712    0.39630    0.56016   1.00
C3       0.18238    0.46566    0.53014   1.00
H1       0.17968    0.50505    0.52855   1.00
C4       0.19087    0.35141    0.53426   1.00
C5       0.19620    0.28726    0.53605   1.00
H2       0.23920    0.29587    0.53069   1.00
H2       0.19293    0.27447    0.55006   1.00
H2       0.15984    0.25099    0.52858   1.00
C4       0.15654    0.41659    0.51514   1.00
C5       0.12460    0.42680    0.49556   1.00
H2       0.07618    0.40542    0.49712   1.00
H2       0.14334    0.47458    0.49304   1.00
H2       0.13476    0.40648    0.48430   1.00
C6       0.16168    0.35910    0.51691   1.00
C6       0.13513    0.30666    0.50071   1.00
C4       0.17777    0.30816    0.48539   1.00
C5       0.24798    0.36690    0.48368   1.00
H2       0.27870    0.35742    0.49112   1.00
H2       0.26118    0.37444    0.46975   1.00
H2       0.24924    0.40692    0.48919   1.00
C4       0.06705    0.25580    0.50177   1.00
C5       0.01804    0.25098    0.51847   1.00
H2       -0.00283   0.27742    0.51468   1.00
H2       -0.01665   0.20428    0.52032   1.00
H2       0.04279    0.26857    0.53087   1.00
C3       0.15206    0.25655    0.47107   1.00
H1       0.18024    0.25797    0.46057   1.00
C3       0.04477    0.20310    0.48659   1.00
H1       -0.00011   0.16756    0.48699   1.00
C2       0.08630    0.20360    0.47190   1.00
C2       0.54210    0.75376    0.54716   1.00
C3       0.59825    0.81431    0.54879   1.00
H1       0.60370    0.84082    0.56016   1.00
C3       0.53434    0.71672    0.53014   1.00
H1       0.49495    0.67463    0.52855   1.00
C4       0.64859    0.83946    0.53426   1.00
C5       0.71274    0.90894    0.53605   1.00
H2       0.70413    0.94333    0.53069   1.00
H2       0.72553    0.91846    0.55006   1.00
H2       0.74901    0.90885    0.52858   1.00
C4       0.58341    0.73995    0.51514   1.00
C5       0.57320    0.69780    0.49556   1.00
H2       0.59458    0.67076    0.49712   1.00
H2       0.52542    0.66876    0.49304   1.00
H2       0.59352    0.72828    0.48430   1.00
C6       0.64090    0.80258    0.51691   1.00
C6       0.69334    0.82847    0.50071   1.00
C4       0.69184    0.86961    0.48539   1.00
C5       0.63310    0.88108    0.48368   1.00
H2       0.64258    0.92128    0.49112   1.00
H2       0.62556    0.88674    0.46975   1.00
H2       0.59308    0.84232    0.48919   1.00
C4       0.74420    0.81125    0.50177   1.00
C5       0.74902    0.76706    0.51847   1.00
H2       0.72258    0.71975    0.51468   1.00
H2       0.79572    0.77907    0.52032   1.00
H2       0.73143    0.77422    0.53087   1.00
C3       0.74345    0.89551    0.47107   1.00
H1       0.74203    0.92227    0.46057   1.00
C3       0.79690    0.84167    0.48659   1.00
H1       0.83244    0.83233    0.48699   1.00
C2       0.79640    0.88270    0.47190   1.00
C2       0.24624    0.78834    0.54716   1.00
C3       0.18569    0.78394    0.54879   1.00
H1       0.15918    0.76288    0.56016   1.00
C3       0.28328    0.81762    0.53014   1.00
H1       0.32537    0.82032    0.52855   1.00
C4       0.16054    0.80913    0.53426   1.00
C5       0.09106    0.80380    0.53605   1.00
H2       0.05667    0.76080    0.53069   1.00
H2       0.08154    0.80707    0.55006   1.00
H2       0.09115    0.84016    0.52858   1.00
C4       0.26005    0.84346    0.51514   1.00
C5       0.30220    0.87540    0.49556   1.00
H2       0.32924    0.92382    0.49712   1.00
H2       0.33124    0.85666    0.49304   1.00
H2       0.27172    0.86524    0.48430   1.00
C6       0.19742    0.83832    0.51691   1.00
C6       0.17153    0.86487    0.50071   1.00
C4       0.13039    0.82223    0.48539   1.00
C5       0.11892    0.75202    0.48368   1.00
H2       0.07872    0.72130    0.49112   1.00
H2       0.11326    0.73882    0.46975   1.00
H2       0.15768    0.75076    0.48919   1.00
C4       0.18875    0.93295    0.50177   1.00
C5       0.23294    0.98196    0.51847   1.00
H2       0.28025    0.00283    0.51468   1.00
H2       0.22093    0.01665    0.52032   1.00
H2       0.22578    0.95721    0.53087   1.00
C3       0.10449    0.84794    0.47107   1.00
H1       0.07773    0.81976    0.46057   1.00
C3       0.15833    0.95523    0.48659   1.00
H1       0.16767    0.00011    0.48699   1.00
C2       0.11730    0.91370    0.47190   1.00
C2       0.45790    0.21166    0.95284   1.00
C3       0.40175    0.21606    0.95121   1.00
H1       0.39630    0.23712    0.93984   1.00
C3       0.46566    0.18238    0.96986   1.00
H1       0.50505    0.17968    0.97145   1.00
C4       0.35141    0.19087    0.96574   1.00
C5       0.28726    0.19620    0.96395   1.00
H2       0.29587    0.23920    0.96931   1.00
H2       0.27447    0.19293    0.94994   1.00
H2       0.25099    0.15984    0.97142   1.00
C4       0.41659    0.15654    0.98486   1.00
C5       0.42680    0.12460    0.00444   1.00
H2       0.40542    0.07618    0.00288   1.00
H2       0.47458    0.14334    0.00696   1.00
H2       0.40648    0.13476    0.01570   1.00
C6       0.35910    0.16168    0.98309   1.00
C6       0.30666    0.13513    0.99929   1.00
C4       0.30816    0.17777    0.01461   1.00
C5       0.36690    0.24798    0.01632   1.00
H2       0.35742    0.27870    0.00888   1.00
H2       0.37444    0.26118    0.03025   1.00
H2       0.40692    0.24924    0.01081   1.00
C4       0.25580    0.06705    0.99823   1.00
C5       0.25098    0.01804    0.98153   1.00
H2       0.27742    -0.00283   0.98532   1.00
H2       0.20428    -0.01665   0.97968   1.00
H2       0.26857    0.04279    0.96913   1.00
C3       0.25655    0.15206    0.02893   1.00
H1       0.25797    0.18024    0.03943   1.00
C3       0.20310    0.04477    0.01341   1.00
H1       0.16756    -0.00011   0.01301   1.00
C2       0.20360    0.08630    0.02810   1.00
C2       0.75376    0.54210    0.95284   1.00
C3       0.81431    0.59825    0.95121   1.00
H1       0.84082    0.60370    0.93984   1.00
C3       0.71672    0.53434    0.96986   1.00
H1       0.67463    0.49495    0.97145   1.00
C4       0.83946    0.64859    0.96574   1.00
C5       0.90894    0.71274    0.96395   1.00
H2       0.94333    0.70413    0.96931   1.00
H2       0.91846    0.72553    0.94994   1.00
H2       0.90885    0.74901    0.97142   1.00
C4       0.73995    0.58341    0.98486   1.00
C5       0.69780    0.57320    0.00444   1.00
H2       0.67076    0.59458    0.00288   1.00
H2       0.66876    0.52542    0.00696   1.00
H2       0.72828    0.59352    0.01570   1.00
C6       0.80258    0.64090    0.98309   1.00
C6       0.82847    0.69334    0.99929   1.00
C4       0.86961    0.69184    0.01461   1.00
C5       0.88108    0.63310    0.01632   1.00
H2       0.92128    0.64258    0.00888   1.00
H2       0.88674    0.62556    0.03025   1.00
H2       0.84232    0.59308    0.01081   1.00
C4       0.81125    0.74420    0.99823   1.00
C5       0.76706    0.74902    0.98153   1.00
H2       0.71975    0.72258    0.98532   1.00
H2       0.77907    0.79572    0.97968   1.00
H2       0.77422    0.73143    0.96913   1.00
C3       0.89551    0.74345    0.02893   1.00
H1       0.92227    0.74203    0.03943   1.00
C3       0.84167    0.79690    0.01341   1.00
H1       0.83233    0.83244    0.01301   1.00
C2       0.88270    0.79640    0.02810   1.00
C2       0.78834    0.24624    0.95284   1.00
C3       0.78394    0.18569    0.95121   1.00
H1       0.76288    0.15918    0.93984   1.00
C3       0.81762    0.28328    0.96986   1.00
H1       0.82032    0.32537    0.97145   1.00
C4       0.80913    0.16054    0.96574   1.00
C5       0.80380    0.09106    0.96395   1.00
H2       0.76080    0.05667    0.96931   1.00
H2       0.80707    0.08154    0.94994   1.00
H2       0.84016    0.09115    0.97142   1.00
C4       0.84346    0.26005    0.98486   1.00
C5       0.87540    0.30220    0.00444   1.00
H2       0.92382    0.32924    0.00288   1.00
H2       0.85666    0.33124    0.00696   1.00
H2       0.86524    0.27172    0.01570   1.00
C6       0.83832    0.19742    0.98309   1.00
C6       0.86487    0.17153    0.99929   1.00
C4       0.82223    0.13039    0.01461   1.00
C5       0.75202    0.11892    0.01632   1.00
H2       0.72130    0.07872    0.00888   1.00
H2       0.73882    0.11326    0.03025   1.00
H2       0.75076    0.15768    0.01081   1.00
C4       0.93295    0.18875    0.99823   1.00
C5       0.98196    0.23294    0.98153   1.00
H2       0.00283    0.28025    0.98532   1.00
H2       0.01665    0.22093    0.97968   1.00
H2       0.95721    0.22578    0.96913   1.00
C3       0.84794    0.10449    0.02893   1.00
H1       0.81976    0.07773    0.03943   1.00
C3       0.95523    0.15833    0.01341   1.00
H1       0.00011    0.16767    0.01301   1.00
C2       0.91370    0.11730    0.02810   1.00
C2       0.45501    0.87543    0.78617   1.00
C3       0.45061    0.93158    0.78454   1.00
H1       0.42955    0.93703    0.77317   1.00
C3       0.48429    0.86767    0.80319   1.00
H1       0.48699    0.82828    0.80478   1.00
C4       0.47580    0.98192    0.79907   1.00
C5       0.47047    0.04607    0.79728   1.00
H2       0.42747    0.03746    0.80264   1.00
H2       0.47374    0.05886    0.78327   1.00
H2       0.50683    0.08234    0.80475   1.00
C4       0.51013    0.91674    0.81819   1.00
C5       0.54207    0.90653    0.83777   1.00
H2       0.59049    0.92791    0.83621   1.00
H2       0.52333    0.85875    0.84029   1.00
H2       0.53191    0.92685    0.84903   1.00
C6       0.50499    0.97423    0.81642   1.00
C6       0.53154    0.02667    0.83262   1.00
C4       0.48890    0.02517    0.84794   1.00
C5       0.41869    0.96643    0.84965   1.00
H2       0.38797    0.97591    0.84221   1.00
H2       0.40549    0.95889    0.86358   1.00
H2       0.41743    0.92641    0.84414   1.00
C4       0.59962    0.07753    0.83156   1.00
C5       0.64863    0.08235    0.81486   1.00
H2       0.66950    0.05591    0.81865   1.00
H2       0.68332    0.12905    0.81301   1.00
H2       0.62388    0.06476    0.80246   1.00
C3       0.51461    0.07678    0.86226   1.00
H1       0.48643    0.07536    0.87276   1.00
C3       0.62190    0.13023    0.84674   1.00
H1       0.66678    0.16577    0.84634   1.00
C2       0.58037    0.12973    0.86143   1.00
C2       0.12457    0.57957    0.78617   1.00
C3       0.06842    0.51902    0.78454   1.00
H1       0.06297    0.49251    0.77317   1.00
C3       0.13233    0.61661    0.80319   1.00
H1       0.17172    0.65870    0.80478   1.00
C4       0.01808    0.49387    0.79907   1.00
C5       0.95393    0.42439    0.79728   1.00
H2       0.96254    0.39000    0.80264   1.00
H2       0.94114    0.41487    0.78327   1.00
H2       0.91766    0.42448    0.80475   1.00
C4       0.08326    0.59338    0.81819   1.00
C5       0.09347    0.63553    0.83777   1.00
H2       0.07209    0.66257    0.83621   1.00
H2       0.14125    0.66457    0.84029   1.00
H2       0.07315    0.60505    0.84903   1.00
C6       0.02577    0.53075    0.81642   1.00
C6       0.97333    0.50486    0.83262   1.00
C4       0.97483    0.46372    0.84794   1.00
C5       0.03357    0.45225    0.84965   1.00
H2       0.02409    0.41205    0.84221   1.00
H2       0.04111    0.44659    0.86358   1.00
H2       0.07359    0.49101    0.84414   1.00
C4       0.92247    0.52208    0.83156   1.00
C5       0.91765    0.56627    0.81486   1.00
H2       0.94409    0.61358    0.81865   1.00
H2       0.87095    0.55426    0.81301   1.00
H2       0.93524    0.55911    0.80246   1.00
C3       0.92322    0.43782    0.86226   1.00
H1       0.92464    0.41106    0.87276   1.00
C3       0.86977    0.49166    0.84674   1.00
H1       0.83423    0.50100    0.84634   1.00
C2       0.87027    0.45063    0.86143   1.00
C2       0.42043    0.54499    0.78617   1.00
C3       0.48098    0.54939    0.78454   1.00
H1       0.50749    0.57045    0.77317   1.00
C3       0.38339    0.51571    0.80319   1.00
H1       0.34130    0.51301    0.80478   1.00
C4       0.50613    0.52420    0.79907   1.00
C5       0.57561    0.52953    0.79728   1.00
H2       0.61000    0.57253    0.80264   1.00
H2       0.58513    0.52626    0.78327   1.00
H2       0.57552    0.49317    0.80475   1.00
C4       0.40662    0.48987    0.81819   1.00
C5       0.36447    0.45793    0.83777   1.00
H2       0.33743    0.40951    0.83621   1.00
H2       0.33543    0.47667    0.84029   1.00
H2       0.39495    0.46809    0.84903   1.00
C6       0.46925    0.49501    0.81642   1.00
C6       0.49514    0.46846    0.83262   1.00
C4       0.53628    0.51110    0.84794   1.00
C5       0.54775    0.58131    0.84965   1.00
H2       0.58795    0.61203    0.84221   1.00
H2       0.55341    0.59451    0.86358   1.00
H2       0.50899    0.58257    0.84414   1.00
C4       0.47792    0.40038    0.83156   1.00
C5       0.43373    0.35137    0.81486   1.00
H2       0.38642    0.33050    0.81865   1.00
H2       0.44574    0.31668    0.81301   1.00
H2       0.44089    0.37612    0.80246   1.00
C3       0.56218    0.48539    0.86226   1.00
H1       0.58894    0.51357    0.87276   1.00
C3       0.50834    0.37810    0.84674   1.00
H1       0.49900    0.33322    0.84634   1.00
C2       0.54937    0.41963    0.86143   1.00
C2       0.20877    0.12167    0.38049   1.00
C3       0.26492    0.11727    0.38212   1.00
H1       0.27037    0.09621    0.39349   1.00
C3       0.20101    0.15095    0.36347   1.00
H1       0.16162    0.15365    0.36188   1.00
C4       0.31526    0.14246    0.36759   1.00
C5       0.37941    0.13713    0.36938   1.00
H2       0.37080    0.09413    0.36402   1.00
H2       0.39220    0.14040    0.38339   1.00
H2       0.41568    0.17349    0.36191   1.00
C4       0.25008    0.17679    0.34847   1.00
C5       0.23987    0.20873    0.32889   1.00
H2       0.26125    0.25715    0.33045   1.00
H2       0.19209    0.18999    0.32637   1.00
H2       0.26019    0.19857    0.31763   1.00
C6       0.30757    0.17165    0.35024   1.00
C6       0.36001    0.19820    0.33404   1.00
C4       0.35851    0.15556    0.31872   1.00
C5       0.29977    0.08535    0.31701   1.00
H2       0.30925    0.05463    0.32445   1.00
H2       0.29223    0.07215    0.30308   1.00
H2       0.25975    0.08409    0.32252   1.00
C4       0.41087    0.26628    0.33510   1.00
C5       0.41569    0.31529    0.35180   1.00
H2       0.38925    0.33616    0.34801   1.00
H2       0.46239    0.34998    0.35365   1.00
H2       0.39810    0.29054    0.36420   1.00
C3       0.41012    0.18127    0.30440   1.00
H1       0.40870    0.15309    0.29390   1.00
C3       0.46357    0.28856    0.31992   1.00
H1       0.49911    0.33344    0.32032   1.00
C2       0.46307    0.24703    0.30523   1.00
C2       0.91291    0.79123    0.38049   1.00
C3       0.85236    0.73508    0.38212   1.00
H1       0.82585    0.72963    0.39349   1.00
C3       0.94995    0.79899    0.36347   1.00
H1       0.99204    0.83838    0.36188   1.00
C4       0.82721    0.68474    0.36759   1.00
C5       0.75773    0.62059    0.36938   1.00
H2       0.72334    0.62920    0.36402   1.00
H2       0.74821    0.60780    0.38339   1.00
H2       0.75782    0.58432    0.36191   1.00
C4       0.92672    0.74992    0.34847   1.00
C5       0.96887    0.76013    0.32889   1.00
H2       0.99591    0.73875    0.33045   1.00
H2       0.99791    0.80791    0.32637   1.00
H2       0.93839    0.73981    0.31763   1.00
C6       0.86409    0.69243    0.35024   1.00
C6       0.83820    0.63999    0.33404   1.00
C4       0.79706    0.64149    0.31872   1.00
C5       0.78559    0.70023    0.31701   1.00
H2       0.74539    0.69075    0.32445   1.00
H2       0.77993    0.70777    0.30308   1.00
H2       0.82435    0.74025    0.32252   1.00
C4       0.85542    0.58913    0.33510   1.00
C5       0.89961    0.58431    0.35180   1.00
H2       0.94692    0.61075    0.34801   1.00
H2       0.88760    0.53761    0.35365   1.00
H2       0.89245    0.60190    0.36420   1.00
C3       0.77116    0.58988    0.30440   1.00
H1       0.74440    0.59130    0.29390   1.00
C3       0.82500    0.53643    0.31992   1.00
H1       0.83434    0.50089    0.32032   1.00
C2       0.78397    0.53693    0.30523   1.00
C2       0.87833    0.08709    0.38049   1.00
C3       0.88273    0.14764    0.38212   1.00
H1       0.90379    0.17415    0.39349   1.00
C3       0.84905    0.05005    0.36347   1.00
H1       0.84635    0.00796    0.36188   1.00
C4       0.85754    0.17279    0.36759   1.00
C5       0.86287    0.24227    0.36938   1.00
H2       0.90587    0.27666    0.36402   1.00
H2       0.85960    0.25179    0.38339   1.00
H2       0.82651    0.24218    0.36191   1.00
C4       0.82321    0.07328    0.34847   1.00
C5       0.79127    0.03113    0.32889   1.00
H2       0.74285    0.00409    0.33045   1.00
H2       0.81001    0.00209    0.32637   1.00
H2       0.80143    0.06161    0.31763   1.00
C6       0.82835    0.13591    0.35024   1.00
C6       0.80180    0.16180    0.33404   1.00
C4       0.84444    0.20294    0.31872   1.00
C5       0.91465    0.21441    0.31701   1.00
H2       0.94537    0.25461    0.32445   1.00
H2       0.92785    0.22007    0.30308   1.00
H2       0.91591    0.17565    0.32252   1.00
C4       0.73372    0.14458    0.33510   1.00
C5       0.68471    0.10039    0.35180   1.00
H2       0.66384    0.05308    0.34801   1.00
H2       0.65002    0.11240    0.35365   1.00
H2       0.70946    0.10755    0.36420   1.00
C3       0.81873    0.22884    0.30440   1.00
H1       0.84691    0.25560    0.29390   1.00
C3       0.71144    0.17500    0.31992   1.00
H1       0.66656    0.16566    0.32032   1.00
C2       0.75297    0.21603    0.30523   1.00
C2       0.87833    0.79123    0.88049   1.00
C3       0.88273    0.73508    0.88212   1.00
H1       0.90379    0.72963    0.89349   1.00
C3       0.84905    0.79899    0.86347   1.00
H1       0.84635    0.83838    0.86188   1.00
C4       0.85754    0.68474    0.86759   1.00
C5       0.86287    0.62059    0.86938   1.00
H2       0.90587    0.62920    0.86402   1.00
H2       0.85960    0.60780    0.88339   1.00
H2       0.82651    0.58432    0.86191   1.00
C4       0.82321    0.74992    0.84847   1.00
C5       0.79127    0.76013    0.82889   1.00
H2       0.74285    0.73875    0.83045   1.00
H2       0.81001    0.80791    0.82637   1.00
H2       0.80143    0.73981    0.81763   1.00
C6       0.82835    0.69243    0.85024   1.00
C6       0.80180    0.63999    0.83404   1.00
C4       0.84444    0.64149    0.81872   1.00
C5       0.91465    0.70023    0.81701   1.00
H2       0.94537    0.69075    0.82445   1.00
H2       0.92785    0.70777    0.80308   1.00
H2       0.91591    0.74025    0.82252   1.00
C4       0.73372    0.58913    0.83510   1.00
C5       0.68471    0.58431    0.85180   1.00
H2       0.66384    0.61075    0.84801   1.00
H2       0.65002    0.53761    0.85365   1.00
H2       0.70946    0.60190    0.86420   1.00
C3       0.81873    0.58988    0.80440   1.00
H1       0.84691    0.59130    0.79390   1.00
C3       0.71144    0.53643    0.81992   1.00
H1       0.66656    0.50089    0.82032   1.00
C2       0.75297    0.53693    0.80523   1.00
C2       0.20877    0.08709    0.88049   1.00
C3       0.26492    0.14764    0.88212   1.00
H1       0.27037    0.17415    0.89349   1.00
C3       0.20101    0.05005    0.86347   1.00
H1       0.16162    0.00796    0.86188   1.00
C4       0.31526    0.17279    0.86759   1.00
C5       0.37941    0.24227    0.86938   1.00
H2       0.37080    0.27666    0.86402   1.00
H2       0.39220    0.25179    0.88339   1.00
H2       0.41568    0.24218    0.86191   1.00
C4       0.25008    0.07328    0.84847   1.00
C5       0.23987    0.03113    0.82889   1.00
H2       0.26125    0.00409    0.83045   1.00
H2       0.19209    0.00209    0.82637   1.00
H2       0.26019    0.06161    0.81763   1.00
C6       0.30757    0.13591    0.85024   1.00
C6       0.36001    0.16180    0.83404   1.00
C4       0.35851    0.20294    0.81872   1.00
C5       0.29977    0.21441    0.81701   1.00
H2       0.30925    0.25461    0.82445   1.00
H2       0.29223    0.22007    0.80308   1.00
H2       0.25975    0.17565    0.82252   1.00
C4       0.41087    0.14458    0.83510   1.00
C5       0.41569    0.10039    0.85180   1.00
H2       0.38925    0.05308    0.84801   1.00
H2       0.46239    0.11240    0.85365   1.00
H2       0.39810    0.10755    0.86420   1.00
C3       0.41012    0.22884    0.80440   1.00
H1       0.40870    0.25560    0.79390   1.00
C3       0.46357    0.17500    0.81992   1.00
H1       0.49911    0.16566    0.82032   1.00
C2       0.46307    0.21603    0.80523   1.00
C2       0.91291    0.12167    0.88049   1.00
C3       0.85236    0.11727    0.88212   1.00
H1       0.82585    0.09621    0.89349   1.00
C3       0.94995    0.15095    0.86347   1.00
H1       0.99204    0.15365    0.86188   1.00
C4       0.82721    0.14246    0.86759   1.00
C5       0.75773    0.13713    0.86938   1.00
H2       0.72334    0.09413    0.86402   1.00
H2       0.74821    0.14040    0.88339   1.00
H2       0.75782    0.17349    0.86191   1.00
C4       0.92672    0.17679    0.84847   1.00
C5       0.96887    0.20873    0.82889   1.00
H2       0.99591    0.25715    0.83045   1.00
H2       0.99791    0.18999    0.82637   1.00
H2       0.93839    0.19857    0.81763   1.00
C6       0.86409    0.17165    0.85024   1.00
C6       0.83820    0.19820    0.83404   1.00
C4       0.79706    0.15556    0.81872   1.00
C5       0.78559    0.08535    0.81701   1.00
H2       0.74539    0.05463    0.82445   1.00
H2       0.77993    0.07215    0.80308   1.00
H2       0.82435    0.08409    0.82252   1.00
C4       0.85542    0.26628    0.83510   1.00
C5       0.89961    0.31529    0.85180   1.00
H2       0.94692    0.33616    0.84801   1.00
H2       0.88760    0.34998    0.85365   1.00
H2       0.89245    0.29054    0.86420   1.00
C3       0.77116    0.18127    0.80440   1.00
H1       0.74440    0.15309    0.79390   1.00
C3       0.82500    0.28856    0.81992   1.00
H1       0.83434    0.33344    0.82032   1.00
C2       0.78397    0.24703    0.80523   1.00
C2       0.12457    0.54499    0.28617   1.00
C3       0.06842    0.54939    0.28454   1.00
H1       0.06297    0.57045    0.27317   1.00
C3       0.13233    0.51571    0.30319   1.00
H1       0.17172    0.51301    0.30478   1.00
C4       0.01808    0.52420    0.29907   1.00
C5       0.95393    0.52953    0.29728   1.00
H2       0.96254    0.57253    0.30264   1.00
H2       0.94114    0.52626    0.28327   1.00
H2       0.91766    0.49317    0.30475   1.00
C4       0.08326    0.48987    0.31819   1.00
C5       0.09347    0.45793    0.33777   1.00
H2       0.07209    0.40951    0.33621   1.00
H2       0.14125    0.47667    0.34029   1.00
H2       0.07315    0.46809    0.34903   1.00
C6       0.02577    0.49501    0.31642   1.00
C6       0.97333    0.46846    0.33262   1.00
C4       0.97483    0.51110    0.34794   1.00
C5       0.03357    0.58131    0.34965   1.00
H2       0.02409    0.61203    0.34221   1.00
H2       0.04111    0.59451    0.36358   1.00
H2       0.07359    0.58257    0.34414   1.00
C4       0.92247    0.40038    0.33156   1.00
C5       0.91765    0.35137    0.31486   1.00
H2       0.94409    0.33050    0.31865   1.00
H2       0.87095    0.31668    0.31301   1.00
H2       0.93524    0.37612    0.30246   1.00
C3       0.92322    0.48539    0.36226   1.00
H1       0.92464    0.51357    0.37276   1.00
C3       0.86977    0.37810    0.34674   1.00
H1       0.83423    0.33322    0.34634   1.00
C2       0.87027    0.41963    0.36143   1.00
C2       0.42043    0.87543    0.28617   1.00
C3       0.48098    0.93158    0.28454   1.00
H1       0.50749    0.93703    0.27317   1.00
C3       0.38339    0.86767    0.30319   1.00
H1       0.34130    0.82828    0.30478   1.00
C4       0.50613    0.98192    0.29907   1.00
C5       0.57561    0.04607    0.29728   1.00
H2       0.61000    0.03746    0.30264   1.00
H2       0.58513    0.05886    0.28327   1.00
H2       0.57552    0.08234    0.30475   1.00
C4       0.40662    0.91674    0.31819   1.00
C5       0.36447    0.90653    0.33777   1.00
H2       0.33743    0.92791    0.33621   1.00
H2       0.33543    0.85875    0.34029   1.00
H2       0.39495    0.92685    0.34903   1.00
C6       0.46925    0.97423    0.31642   1.00
C6       0.49514    0.02667    0.33262   1.00
C4       0.53628    0.02517    0.34794   1.00
C5       0.54775    0.96643    0.34965   1.00
H2       0.58795    0.97591    0.34221   1.00
H2       0.55341    0.95889    0.36358   1.00
H2       0.50899    0.92641    0.34414   1.00
C4       0.47792    0.07753    0.33156   1.00
C5       0.43373    0.08235    0.31486   1.00
H2       0.38642    0.05591    0.31865   1.00
H2       0.44574    0.12905    0.31301   1.00
H2       0.44089    0.06476    0.30246   1.00
C3       0.56218    0.07678    0.36226   1.00
H1       0.58894    0.07536    0.37276   1.00
C3       0.50834    0.13023    0.34674   1.00
H1       0.49900    0.16577    0.34634   1.00
C2       0.54937    0.12973    0.36143   1.00
C2       0.45501    0.57957    0.28617   1.00
C3       0.45061    0.51902    0.28454   1.00
H1       0.42955    0.49251    0.27317   1.00
C3       0.48429    0.61661    0.30319   1.00
H1       0.48699    0.65870    0.30478   1.00
C4       0.47580    0.49387    0.29907   1.00
C5       0.47047    0.42439    0.29728   1.00
H2       0.42747    0.39000    0.30264   1.00
H2       0.47374    0.41487    0.28327   1.00
H2       0.50683    0.42448    0.30475   1.00
C4       0.51013    0.59338    0.31819   1.00
C5       0.54207    0.63553    0.33777   1.00
H2       0.59049    0.66257    0.33621   1.00
H2       0.52333    0.66457    0.34029   1.00
H2       0.53191    0.60505    0.34903   1.00
C6       0.50499    0.53075    0.31642   1.00
C6       0.53154    0.50486    0.33262   1.00
C4       0.48890    0.46372    0.34794   1.00
C5       0.41869    0.45225    0.34965   1.00
H2       0.38797    0.41205    0.34221   1.00
H2       0.40549    0.44659    0.36358   1.00
H2       0.41743    0.49101    0.34414   1.00
C4       0.59962    0.52208    0.33156   1.00
C5       0.64863    0.56627    0.31486   1.00
H2       0.66950    0.61358    0.31865   1.00
H2       0.68332    0.55426    0.31301   1.00
H2       0.62388    0.55911    0.30246   1.00
C3       0.51461    0.43782    0.36226   1.00
H1       0.48643    0.41106    0.37276   1.00
C3       0.62190    0.49166    0.34674   1.00
H1       0.66678    0.50100    0.34634   1.00
C2       0.58037    0.45063    0.36143   1.00
C2       0.12167    0.20877    0.11951   1.00
C3       0.11727    0.26492    0.11788   1.00
H1       0.09621    0.27037    0.10651   1.00
C3       0.15095    0.20101    0.13653   1.00
H1       0.15365    0.16162    0.13812   1.00
C4       0.14246    0.31526    0.13241   1.00
C5       0.13713    0.37941    0.13062   1.00
H2       0.09413    0.37080    0.13598   1.00
H2       0.14040    0.39220    0.11661   1.00
H2       0.17349    0.41568    0.13809   1.00
C4       0.17679    0.25008    0.15153   1.00
C5       0.20873    0.23987    0.17111   1.00
H2       0.25715    0.26125    0.16955   1.00
H2       0.18999    0.19209    0.17363   1.00
H2       0.19857    0.26019    0.18237   1.00
C6       0.17165    0.30757    0.14976   1.00
C6       0.19820    0.36001    0.16596   1.00
C4       0.15556    0.35851    0.18128   1.00
C5       0.08535    0.29977    0.18299   1.00
H2       0.05463    0.30925    0.17555   1.00
H2       0.07215    0.29223    0.19692   1.00
H2       0.08409    0.25975    0.17748   1.00
C4       0.26628    0.41087    0.16490   1.00
C5       0.31529    0.41569    0.14820   1.00
H2       0.33616    0.38925    0.15199   1.00
H2       0.34998    0.46239    0.14635   1.00
H2       0.29054    0.39810    0.13580   1.00
C3       0.18127    0.41012    0.19560   1.00
H1       0.15309    0.40870    0.20610   1.00
C3       0.28856    0.46357    0.18008   1.00
H1       0.33344    0.49911    0.17968   1.00
C2       0.24703    0.46307    0.19477   1.00
C2       0.79123    0.91291    0.11951   1.00
C3       0.73508    0.85236    0.11788   1.00
H1       0.72963    0.82585    0.10651   1.00
C3       0.79899    0.94995    0.13653   1.00
H1       0.83838    0.99204    0.13812   1.00
C4       0.68474    0.82721    0.13241   1.00
C5       0.62059    0.75773    0.13062   1.00
H2       0.62920    0.72334    0.13598   1.00
H2       0.60780    0.74821    0.11661   1.00
H2       0.58432    0.75782    0.13809   1.00
C4       0.74992    0.92672    0.15153   1.00
C5       0.76013    0.96887    0.17111   1.00
H2       0.73875    0.99591    0.16955   1.00
H2       0.80791    0.99791    0.17363   1.00
H2       0.73981    0.93839    0.18237   1.00
C6       0.69243    0.86409    0.14976   1.00
C6       0.63999    0.83820    0.16596   1.00
C4       0.64149    0.79706    0.18128   1.00
C5       0.70023    0.78559    0.18299   1.00
H2       0.69075    0.74539    0.17555   1.00
H2       0.70777    0.77993    0.19692   1.00
H2       0.74025    0.82435    0.17748   1.00
C4       0.58913    0.85542    0.16490   1.00
C5       0.58431    0.89961    0.14820   1.00
H2       0.61075    0.94692    0.15199   1.00
H2       0.53761    0.88760    0.14635   1.00
H2       0.60190    0.89245    0.13580   1.00
C3       0.58988    0.77116    0.19560   1.00
H1       0.59130    0.74440    0.20610   1.00
C3       0.53643    0.82500    0.18008   1.00
H1       0.50089    0.83434    0.17968   1.00
C2       0.53693    0.78397    0.19477   1.00
C2       0.08709    0.87833    0.11951   1.00
C3       0.14764    0.88273    0.11788   1.00
H1       0.17415    0.90379    0.10651   1.00
C3       0.05005    0.84905    0.13653   1.00
H1       0.00796    0.84635    0.13812   1.00
C4       0.17279    0.85754    0.13241   1.00
C5       0.24227    0.86287    0.13062   1.00
H2       0.27666    0.90587    0.13598   1.00
H2       0.25179    0.85960    0.11661   1.00
H2       0.24218    0.82651    0.13809   1.00
C4       0.07328    0.82321    0.15153   1.00
C5       0.03113    0.79127    0.17111   1.00
H2       0.00409    0.74285    0.16955   1.00
H2       0.00209    0.81001    0.17363   1.00
H2       0.06161    0.80143    0.18237   1.00
C6       0.13591    0.82835    0.14976   1.00
C6       0.16180    0.80180    0.16596   1.00
C4       0.20294    0.84444    0.18128   1.00
C5       0.21441    0.91465    0.18299   1.00
H2       0.25461    0.94537    0.17555   1.00
H2       0.22007    0.92785    0.19692   1.00
H2       0.17565    0.91591    0.17748   1.00
C4       0.14458    0.73372    0.16490   1.00
C5       0.10039    0.68471    0.14820   1.00
H2       0.05308    0.66384    0.15199   1.00
H2       0.11240    0.65002    0.14635   1.00
H2       0.10755    0.70946    0.13580   1.00
C3       0.22884    0.81873    0.19560   1.00
H1       0.25560    0.84691    0.20610   1.00
C3       0.17500    0.71144    0.18008   1.00
H1       0.16566    0.66656    0.17968   1.00
C2       0.21603    0.75297    0.19477   1.00
C2       0.87543    0.45501    0.71383   1.00
C3       0.93158    0.45061    0.71546   1.00
H1       0.93703    0.42955    0.72683   1.00
C3       0.86767    0.48429    0.69681   1.00
H1       0.82828    0.48699    0.69522   1.00
C4       0.98192    0.47580    0.70093   1.00
C5       0.04607    0.47047    0.70272   1.00
H2       0.03746    0.42747    0.69736   1.00
H2       0.05886    0.47374    0.71673   1.00
H2       0.08234    0.50683    0.69525   1.00
C4       0.91674    0.51013    0.68181   1.00
C5       0.90653    0.54207    0.66223   1.00
H2       0.92791    0.59049    0.66379   1.00
H2       0.85875    0.52333    0.65971   1.00
H2       0.92685    0.53191    0.65097   1.00
C6       0.97423    0.50499    0.68358   1.00
C6       0.02667    0.53154    0.66738   1.00
C4       0.02517    0.48890    0.65206   1.00
C5       0.96643    0.41869    0.65035   1.00
H2       0.97591    0.38797    0.65779   1.00
H2       0.95889    0.40549    0.63642   1.00
H2       0.92641    0.41743    0.65586   1.00
C4       0.07753    0.59962    0.66844   1.00
C5       0.08235    0.64863    0.68514   1.00
H2       0.05591    0.66950    0.68135   1.00
H2       0.12905    0.68332    0.68699   1.00
H2       0.06476    0.62388    0.69754   1.00
C3       0.07678    0.51461    0.63774   1.00
H1       0.07536    0.48643    0.62724   1.00
C3       0.13023    0.62190    0.65326   1.00
H1       0.16577    0.66678    0.65366   1.00
C2       0.12973    0.58037    0.63857   1.00
C2       0.57957    0.12457    0.71383   1.00
C3       0.51902    0.06842    0.71546   1.00
H1       0.49251    0.06297    0.72683   1.00
C3       0.61661    0.13233    0.69681   1.00
H1       0.65870    0.17172    0.69522   1.00
C4       0.49387    0.01808    0.70093   1.00
C5       0.42439    0.95393    0.70272   1.00
H2       0.39000    0.96254    0.69736   1.00
H2       0.41487    0.94114    0.71673   1.00
H2       0.42448    0.91766    0.69525   1.00
C4       0.59338    0.08326    0.68181   1.00
C5       0.63553    0.09347    0.66223   1.00
H2       0.66257    0.07209    0.66379   1.00
H2       0.66457    0.14125    0.65971   1.00
H2       0.60505    0.07315    0.65097   1.00
C6       0.53075    0.02577    0.68358   1.00
C6       0.50486    0.97333    0.66738   1.00
C4       0.46372    0.97483    0.65206   1.00
C5       0.45225    0.03357    0.65035   1.00
H2       0.41205    0.02409    0.65779   1.00
H2       0.44659    0.04111    0.63642   1.00
H2       0.49101    0.07359    0.65586   1.00
C4       0.52208    0.92247    0.66844   1.00
C5       0.56627    0.91765    0.68514   1.00
H2       0.61358    0.94409    0.68135   1.00
H2       0.55426    0.87095    0.68699   1.00
H2       0.55911    0.93524    0.69754   1.00
C3       0.43782    0.92322    0.63774   1.00
H1       0.41106    0.92464    0.62724   1.00
C3       0.49166    0.86977    0.65326   1.00
H1       0.50100    0.83423    0.65366   1.00
C2       0.45063    0.87027    0.63857   1.00
C2       0.54499    0.42043    0.71383   1.00
C3       0.54939    0.48098    0.71546   1.00
H1       0.57045    0.50749    0.72683   1.00
C3       0.51571    0.38339    0.69681   1.00
H1       0.51301    0.34130    0.69522   1.00
C4       0.52420    0.50613    0.70093   1.00
C5       0.52953    0.57561    0.70272   1.00
H2       0.57253    0.61000    0.69736   1.00
H2       0.52626    0.58513    0.71673   1.00
H2       0.49317    0.57552    0.69525   1.00
C4       0.48987    0.40662    0.68181   1.00
C5       0.45793    0.36447    0.66223   1.00
H2       0.40951    0.33743    0.66379   1.00
H2       0.47667    0.33543    0.65971   1.00
H2       0.46809    0.39495    0.65097   1.00
C6       0.49501    0.46925    0.68358   1.00
C6       0.46846    0.49514    0.66738   1.00
C4       0.51110    0.53628    0.65206   1.00
C5       0.58131    0.54775    0.65035   1.00
H2       0.61203    0.58795    0.65779   1.00
H2       0.59451    0.55341    0.63642   1.00
H2       0.58257    0.50899    0.65586   1.00
C4       0.40038    0.47792    0.66844   1.00
C5       0.35137    0.43373    0.68514   1.00
H2       0.33050    0.38642    0.68135   1.00
H2       0.31668    0.44574    0.68699   1.00
H2       0.37612    0.44089    0.69754   1.00
C3       0.48539    0.56218    0.63774   1.00
H1       0.51357    0.58894    0.62724   1.00
C3       0.37810    0.50834    0.65326   1.00
H1       0.33322    0.49900    0.65366   1.00
C2       0.41963    0.54937    0.63857   1.00
C2       0.54499    0.12457    0.21383   1.00
C3       0.54939    0.06842    0.21546   1.00
H1       0.57045    0.06297    0.22683   1.00
C3       0.51571    0.13233    0.19681   1.00
H1       0.51301    0.17172    0.19522   1.00
C4       0.52420    0.01808    0.20093   1.00
C5       0.52953    0.95393    0.20272   1.00
H2       0.57253    0.96254    0.19736   1.00
H2       0.52626    0.94114    0.21673   1.00
H2       0.49317    0.91766    0.19525   1.00
C4       0.48987    0.08326    0.18181   1.00
C5       0.45793    0.09347    0.16223   1.00
H2       0.40951    0.07209    0.16379   1.00
H2       0.47667    0.14125    0.15971   1.00
H2       0.46809    0.07315    0.15097   1.00
C6       0.49501    0.02577    0.18358   1.00
C6       0.46846    0.97333    0.16738   1.00
C4       0.51110    0.97483    0.15206   1.00
C5       0.58131    0.03357    0.15035   1.00
H2       0.61203    0.02409    0.15779   1.00
H2       0.59451    0.04111    0.13642   1.00
H2       0.58257    0.07359    0.15586   1.00
C4       0.40038    0.92247    0.16844   1.00
C5       0.35137    0.91765    0.18514   1.00
H2       0.33050    0.94409    0.18135   1.00
H2       0.31668    0.87095    0.18699   1.00
H2       0.37612    0.93524    0.19754   1.00
C3       0.48539    0.92322    0.13774   1.00
H1       0.51357    0.92464    0.12724   1.00
C3       0.37810    0.86977    0.15326   1.00
H1       0.33322    0.83423    0.15366   1.00
C2       0.41963    0.87027    0.13857   1.00
C2       0.87543    0.42043    0.21383   1.00
C3       0.93158    0.48098    0.21546   1.00
H1       0.93703    0.50749    0.22683   1.00
C3       0.86767    0.38339    0.19681   1.00
H1       0.82828    0.34130    0.19522   1.00
C4       0.98192    0.50613    0.20093   1.00
C5       0.04607    0.57561    0.20272   1.00
H2       0.03746    0.61000    0.19736   1.00
H2       0.05886    0.58513    0.21673   1.00
H2       0.08234    0.57552    0.19525   1.00
C4       0.91674    0.40662    0.18181   1.00
C5       0.90653    0.36447    0.16223   1.00
H2       0.92791    0.33743    0.16379   1.00
H2       0.85875    0.33543    0.15971   1.00
H2       0.92685    0.39495    0.15097   1.00
C6       0.97423    0.46925    0.18358   1.00
C6       0.02667    0.49514    0.16738   1.00
C4       0.02517    0.53628    0.15206   1.00
C5       0.96643    0.54775    0.15035   1.00
H2       0.97591    0.58795    0.15779   1.00
H2       0.95889    0.55341    0.13642   1.00
H2       0.92641    0.50899    0.15586   1.00
C4       0.07753    0.47792    0.16844   1.00
C5       0.08235    0.43373    0.18514   1.00
H2       0.05591    0.38642    0.18135   1.00
H2       0.12905    0.44574    0.18699   1.00
H2       0.06476    0.44089    0.19754   1.00
C3       0.07678    0.56218    0.13774   1.00
H1       0.07536    0.58894    0.12724   1.00
C3       0.13023    0.50834    0.15326   1.00
H1       0.16577    0.49900    0.15366   1.00
C2       0.12973    0.54937    0.13857   1.00
C2       0.57957    0.45501    0.21383   1.00
C3       0.51902    0.45061    0.21546   1.00
H1       0.49251    0.42955    0.22683   1.00
C3       0.61661    0.48429    0.19681   1.00
H1       0.65870    0.48699    0.19522   1.00
C4       0.49387    0.47580    0.20093   1.00
C5       0.42439    0.47047    0.20272   1.00
H2       0.39000    0.42747    0.19736   1.00
H2       0.41487    0.47374    0.21673   1.00
H2       0.42448    0.50683    0.19525   1.00
C4       0.59338    0.51013    0.18181   1.00
C5       0.63553    0.54207    0.16223   1.00
H2       0.66257    0.59049    0.16379   1.00
H2       0.66457    0.52333    0.15971   1.00
H2       0.60505    0.53191    0.15097   1.00
C6       0.53075    0.50499    0.18358   1.00
C6       0.50486    0.53154    0.16738   1.00
C4       0.46372    0.48890    0.15206   1.00
C5       0.45225    0.41869    0.15035   1.00
H2       0.41205    0.38797    0.15779   1.00
H2       0.44659    0.40549    0.13642   1.00
H2       0.49101    0.41743    0.15586   1.00
C4       0.52208    0.59962    0.16844   1.00
C5       0.56627    0.64863    0.18514   1.00
H2       0.61358    0.66950    0.18135   1.00
H2       0.55426    0.68332    0.18699   1.00
H2       0.55911    0.62388    0.19754   1.00
C3       0.43782    0.51461    0.13774   1.00
H1       0.41106    0.48643    0.12724   1.00
C3       0.49166    0.62190    0.15326   1.00
H1       0.50100    0.66678    0.15366   1.00
C2       0.45063    0.58037    0.13857   1.00
C2       0.79123    0.87833    0.61951   1.00
C3       0.73508    0.88273    0.61788   1.00
H1       0.72963    0.90379    0.60651   1.00
C3       0.79899    0.84905    0.63653   1.00
H1       0.83838    0.84635    0.63812   1.00
C4       0.68474    0.85754    0.63241   1.00
C5       0.62059    0.86287    0.63062   1.00
H2       0.62920    0.90587    0.63598   1.00
H2       0.60780    0.85960    0.61661   1.00
H2       0.58432    0.82651    0.63809   1.00
C4       0.74992    0.82321    0.65153   1.00
C5       0.76013    0.79127    0.67111   1.00
H2       0.73875    0.74285    0.66955   1.00
H2       0.80791    0.81001    0.67363   1.00
H2       0.73981    0.80143    0.68237   1.00
C6       0.69243    0.82835    0.64976   1.00
C6       0.63999    0.80180    0.66596   1.00
C4       0.64149    0.84444    0.68128   1.00
C5       0.70023    0.91465    0.68299   1.00
H2       0.69075    0.94537    0.67555   1.00
H2       0.70777    0.92785    0.69692   1.00
H2       0.74025    0.91591    0.67748   1.00
C4       0.58913    0.73372    0.66490   1.00
C5       0.58431    0.68471    0.64820   1.00
H2       0.61075    0.66384    0.65199   1.00
H2       0.53761    0.65002    0.64635   1.00
H2       0.60190    0.70946    0.63580   1.00
C3       0.58988    0.81873    0.69560   1.00
H1       0.59130    0.84691    0.70610   1.00
C3       0.53643    0.71144    0.68008   1.00
H1       0.50089    0.66656    0.67968   1.00
C2       0.53693    0.75297    0.69477   1.00
C2       0.08709    0.20877    0.61951   1.00
C3       0.14764    0.26492    0.61788   1.00
H1       0.17415    0.27037    0.60651   1.00
C3       0.05005    0.20101    0.63653   1.00
H1       0.00796    0.16162    0.63812   1.00
C4       0.17279    0.31526    0.63241   1.00
C5       0.24227    0.37941    0.63062   1.00
H2       0.27666    0.37080    0.63598   1.00
H2       0.25179    0.39220    0.61661   1.00
H2       0.24218    0.41568    0.63809   1.00
C4       0.07328    0.25008    0.65153   1.00
C5       0.03113    0.23987    0.67111   1.00
H2       0.00409    0.26125    0.66955   1.00
H2       0.00209    0.19209    0.67363   1.00
H2       0.06161    0.26019    0.68237   1.00
C6       0.13591    0.30757    0.64976   1.00
C6       0.16180    0.36001    0.66596   1.00
C4       0.20294    0.35851    0.68128   1.00
C5       0.21441    0.29977    0.68299   1.00
H2       0.25461    0.30925    0.67555   1.00
H2       0.22007    0.29223    0.69692   1.00
H2       0.17565    0.25975    0.67748   1.00
C4       0.14458    0.41087    0.66490   1.00
C5       0.10039    0.41569    0.64820   1.00
H2       0.05308    0.38925    0.65199   1.00
H2       0.11240    0.46239    0.64635   1.00
H2       0.10755    0.39810    0.63580   1.00
C3       0.22884    0.41012    0.69560   1.00
H1       0.25560    0.40870    0.70610   1.00
C3       0.17500    0.46357    0.68008   1.00
H1       0.16566    0.49911    0.67968   1.00
C2       0.21603    0.46307    0.69477   1.00
C2       0.12167    0.91291    0.61951   1.00
C3       0.11727    0.85236    0.61788   1.00
H1       0.09621    0.82585    0.60651   1.00
C3       0.15095    0.94995    0.63653   1.00
H1       0.15365    0.99204    0.63812   1.00
C4       0.14246    0.82721    0.63241   1.00
C5       0.13713    0.75773    0.63062   1.00
H2       0.09413    0.72334    0.63598   1.00
H2       0.14040    0.74821    0.61661   1.00
H2       0.17349    0.75782    0.63809   1.00
C4       0.17679    0.92672    0.65153   1.00
C5       0.20873    0.96887    0.67111   1.00
H2       0.25715    0.99591    0.66955   1.00
H2       0.18999    0.99791    0.67363   1.00
H2       0.19857    0.93839    0.68237   1.00
C6       0.17165    0.86409    0.64976   1.00
C6       0.19820    0.83820    0.66596   1.00
C4       0.15556    0.79706    0.68128   1.00
C5       0.08535    0.78559    0.68299   1.00
H2       0.05463    0.74539    0.67555   1.00
H2       0.07215    0.77993    0.69692   1.00
H2       0.08409    0.82435    0.67748   1.00
C4       0.26628    0.85542    0.66490   1.00
C5       0.31529    0.89961    0.64820   1.00
H2       0.33616    0.94692    0.65199   1.00
H2       0.34998    0.88760    0.64635   1.00
H2       0.29054    0.89245    0.63580   1.00
C3       0.18127    0.77116    0.69560   1.00
H1       0.15309    0.74440    0.70610   1.00
C3       0.28856    0.82500    0.68008   1.00
H1       0.33344    0.83434    0.67968   1.00
C2       0.24703    0.78397    0.69477   1.00
