data_IRMOF10_interpen_symm_ligand11cp_label_b_1.

_audit_creation_method             'generated by an auxiliary program of Tobunporous'

_symmetry_space_group_name_H-M     'P 1'
_symmetry_Int_Tables_number        1
_symmetry_cell_setting             triclinic

_cell_length_a                    22.6523
_cell_length_b                    22.6523
_cell_length_c                    65.9502
_cell_angle_alpha                 90.0000
_cell_angle_beta                  90.0000
_cell_angle_gamma                 120.0000

loop_
_atom_site_label
_atom_site_fract_x
_atom_site_fract_y
_atom_site_fract_z
_atom_site_occupancy
O1       0.00000    0.00000    0.57470   1.00
Zn1      0.00000    0.00000    0.54560   1.00
Zn1      0.94843    0.04287    0.58357   1.00
Zn1      0.09443    0.05157    0.58357   1.00
Zn1      0.95713    0.90557    0.58357   1.00
O2       0.93860    0.02610    0.53560   1.00
O2       0.08750    0.06140    0.53560   1.00
O2       0.97390    0.91250    0.53560   1.00
O2       0.91300    0.07160    0.56150   1.00
O2       0.00463    0.12027    0.60077   1.00
O2       0.87413    0.98077    0.60037   1.00
O2       0.15860    0.08700    0.56150   1.00
O2       0.10663    0.12587    0.60037   1.00
O2       0.11563    0.99537    0.60077   1.00
O2       0.92840    0.84140    0.56150   1.00
O2       0.87973    0.88437    0.60077   1.00
O2       0.01923    0.89337    0.60037   1.00
C1       0.91390    0.06020    0.54330   1.00
C1       0.14630    0.08610    0.54330   1.00
C1       0.93980    0.85370    0.54330   1.00
C1       0.06663    0.14397    0.60637   1.00
C1       0.85603    0.92267    0.60637   1.00
C1       0.07733    0.93337    0.60637   1.00
O1       0.00000    0.00000    0.92530   1.00
Zn1      0.00000    0.00000    0.95440   1.00
Zn1      0.04287    0.94843    0.91643   1.00
Zn1      0.05157    0.09443    0.91643   1.00
Zn1      0.90557    0.95713    0.91643   1.00
O2       0.02610    0.93860    0.96440   1.00
O2       0.06140    0.08750    0.96440   1.00
O2       0.91250    0.97390    0.96440   1.00
O2       0.07160    0.91300    0.93850   1.00
O2       0.12027    0.00463    0.89923   1.00
O2       0.98077    0.87413    0.89963   1.00
O2       0.08700    0.15860    0.93850   1.00
O2       0.12587    0.10663    0.89963   1.00
O2       0.99537    0.11563    0.89923   1.00
O2       0.84140    0.92840    0.93850   1.00
O2       0.88437    0.87973    0.89923   1.00
O2       0.89337    0.01923    0.89963   1.00
C1       0.06020    0.91390    0.95670   1.00
C1       0.08610    0.14630    0.95670   1.00
C1       0.85370    0.93980    0.95670   1.00
C1       0.14397    0.06663    0.89363   1.00
C1       0.92267    0.85603    0.89363   1.00
C1       0.93337    0.07733    0.89363   1.00
O1       0.00000    0.00000    0.42530   1.00
Zn1      0.00000    0.00000    0.45440   1.00
Zn1      0.05157    0.95713    0.41643   1.00
Zn1      0.90557    0.94843    0.41643   1.00
Zn1      0.04287    0.09443    0.41643   1.00
O2       0.06140    0.97390    0.46440   1.00
O2       0.91250    0.93860    0.46440   1.00
O2       0.02610    0.08750    0.46440   1.00
O2       0.08700    0.92840    0.43850   1.00
O2       0.99537    0.87973    0.39923   1.00
O2       0.12587    0.01923    0.39963   1.00
O2       0.84140    0.91300    0.43850   1.00
O2       0.89337    0.87413    0.39963   1.00
O2       0.88437    0.00463    0.39923   1.00
O2       0.07160    0.15860    0.43850   1.00
O2       0.12027    0.11563    0.39923   1.00
O2       0.98077    0.10663    0.39963   1.00
C1       0.08610    0.93980    0.45670   1.00
C1       0.85370    0.91390    0.45670   1.00
C1       0.06020    0.14630    0.45670   1.00
C1       0.93337    0.85603    0.39363   1.00
C1       0.14397    0.07733    0.39363   1.00
C1       0.92267    0.06663    0.39363   1.00
O1       0.00000    0.00000    0.07470   1.00
Zn1      0.00000    0.00000    0.04560   1.00
Zn1      0.95713    0.05157    0.08357   1.00
Zn1      0.94843    0.90557    0.08357   1.00
Zn1      0.09443    0.04287    0.08357   1.00
O2       0.97390    0.06140    0.03560   1.00
O2       0.93860    0.91250    0.03560   1.00
O2       0.08750    0.02610    0.03560   1.00
O2       0.92840    0.08700    0.06150   1.00
O2       0.87973    0.99537    0.10077   1.00
O2       0.01923    0.12587    0.10037   1.00
O2       0.91300    0.84140    0.06150   1.00
O2       0.87413    0.89337    0.10037   1.00
O2       0.00463    0.88437    0.10077   1.00
O2       0.15860    0.07160    0.06150   1.00
O2       0.11563    0.12027    0.10077   1.00
O2       0.10663    0.98077    0.10037   1.00
C1       0.93980    0.08610    0.04330   1.00
C1       0.91390    0.85370    0.04330   1.00
C1       0.14630    0.06020    0.04330   1.00
C1       0.85603    0.93337    0.10637   1.00
C1       0.07733    0.14397    0.10637   1.00
C1       0.06663    0.92267    0.10637   1.00
O1       0.66667    0.33333    0.90803   1.00
Zn1      0.66667    0.33333    0.87893   1.00
Zn1      0.61510    0.37620    0.91690   1.00
Zn1      0.76110    0.38490    0.91690   1.00
Zn1      0.62380    0.23890    0.91690   1.00
O2       0.60527    0.35943    0.86893   1.00
O2       0.75417    0.39473    0.86893   1.00
O2       0.64057    0.24583    0.86893   1.00
O2       0.57967    0.40493    0.89483   1.00
O2       0.67130    0.45360    0.93410   1.00
O2       0.54080    0.31410    0.93370   1.00
O2       0.82527    0.42033    0.89483   1.00
O2       0.77330    0.45920    0.93370   1.00
O2       0.78230    0.32870    0.93410   1.00
O2       0.59507    0.17473    0.89483   1.00
O2       0.54640    0.21770    0.93410   1.00
O2       0.68590    0.22670    0.93370   1.00
C1       0.58057    0.39353    0.87663   1.00
C1       0.81297    0.41943    0.87663   1.00
C1       0.60647    0.18703    0.87663   1.00
C1       0.73330    0.47730    0.93970   1.00
C1       0.52270    0.25600    0.93970   1.00
C1       0.74400    0.26670    0.93970   1.00
O1       0.66667    0.33333    0.25863   1.00
Zn1      0.66667    0.33333    0.28773   1.00
Zn1      0.70953    0.28177    0.24977   1.00
Zn1      0.71823    0.42777    0.24977   1.00
Zn1      0.57223    0.29047    0.24977   1.00
O2       0.69277    0.27193    0.29773   1.00
O2       0.72807    0.42083    0.29773   1.00
O2       0.57917    0.30723    0.29773   1.00
O2       0.73827    0.24633    0.27183   1.00
O2       0.78693    0.33797    0.23257   1.00
O2       0.64743    0.20747    0.23297   1.00
O2       0.75367    0.49193    0.27183   1.00
O2       0.79253    0.43997    0.23297   1.00
O2       0.66203    0.44897    0.23257   1.00
O2       0.50807    0.26173    0.27183   1.00
O2       0.55103    0.21307    0.23257   1.00
O2       0.56003    0.35257    0.23297   1.00
C1       0.72687    0.24723    0.29003   1.00
C1       0.75277    0.47963    0.29003   1.00
C1       0.52037    0.27313    0.29003   1.00
C1       0.81063    0.39997    0.22697   1.00
C1       0.58933    0.18937    0.22697   1.00
C1       0.60003    0.41067    0.22697   1.00
O1       0.66667    0.33333    0.75863   1.00
Zn1      0.66667    0.33333    0.78773   1.00
Zn1      0.71823    0.29047    0.74977   1.00
Zn1      0.57223    0.28177    0.74977   1.00
Zn1      0.70953    0.42777    0.74977   1.00
O2       0.72807    0.30723    0.79773   1.00
O2       0.57917    0.27193    0.79773   1.00
O2       0.69277    0.42083    0.79773   1.00
O2       0.75367    0.26173    0.77183   1.00
O2       0.66203    0.21307    0.73257   1.00
O2       0.79253    0.35257    0.73297   1.00
O2       0.50807    0.24633    0.77183   1.00
O2       0.56003    0.20747    0.73297   1.00
O2       0.55103    0.33797    0.73257   1.00
O2       0.73827    0.49193    0.77183   1.00
O2       0.78693    0.44897    0.73257   1.00
O2       0.64743    0.43997    0.73297   1.00
C1       0.75277    0.27313    0.79003   1.00
C1       0.52037    0.24723    0.79003   1.00
C1       0.72687    0.47963    0.79003   1.00
C1       0.60003    0.18937    0.72697   1.00
C1       0.81063    0.41067    0.72697   1.00
C1       0.58933    0.39997    0.72697   1.00
O1       0.66667    0.33333    0.40803   1.00
Zn1      0.66667    0.33333    0.37893   1.00
Zn1      0.62380    0.38490    0.41690   1.00
Zn1      0.61510    0.23890    0.41690   1.00
Zn1      0.76110    0.37620    0.41690   1.00
O2       0.64057    0.39473    0.36893   1.00
O2       0.60527    0.24583    0.36893   1.00
O2       0.75417    0.35943    0.36893   1.00
O2       0.59507    0.42033    0.39483   1.00
O2       0.54640    0.32870    0.43410   1.00
O2       0.68590    0.45920    0.43370   1.00
O2       0.57967    0.17473    0.39483   1.00
O2       0.54080    0.22670    0.43370   1.00
O2       0.67130    0.21770    0.43410   1.00
O2       0.82527    0.40493    0.39483   1.00
O2       0.78230    0.45360    0.43410   1.00
O2       0.77330    0.31410    0.43370   1.00
C1       0.60647    0.41943    0.37663   1.00
C1       0.58057    0.18703    0.37663   1.00
C1       0.81297    0.39353    0.37663   1.00
C1       0.52270    0.26670    0.43970   1.00
C1       0.74400    0.47730    0.43970   1.00
C1       0.73330    0.25600    0.43970   1.00
O1       0.33333    0.66667    0.24137   1.00
Zn1      0.33333    0.66667    0.21227   1.00
Zn1      0.28177    0.70953    0.25023   1.00
Zn1      0.42777    0.71823    0.25023   1.00
Zn1      0.29047    0.57223    0.25023   1.00
O2       0.27193    0.69277    0.20227   1.00
O2       0.42083    0.72807    0.20227   1.00
O2       0.30723    0.57917    0.20227   1.00
O2       0.24633    0.73827    0.22817   1.00
O2       0.33797    0.78693    0.26743   1.00
O2       0.20747    0.64743    0.26703   1.00
O2       0.49193    0.75367    0.22817   1.00
O2       0.43997    0.79253    0.26703   1.00
O2       0.44897    0.66203    0.26743   1.00
O2       0.26173    0.50807    0.22817   1.00
O2       0.21307    0.55103    0.26743   1.00
O2       0.35257    0.56003    0.26703   1.00
C1       0.24723    0.72687    0.20997   1.00
C1       0.47963    0.75277    0.20997   1.00
C1       0.27313    0.52037    0.20997   1.00
C1       0.39997    0.81063    0.27303   1.00
C1       0.18937    0.58933    0.27303   1.00
C1       0.41067    0.60003    0.27303   1.00
O1       0.33333    0.66667    0.59197   1.00
Zn1      0.33333    0.66667    0.62107   1.00
Zn1      0.37620    0.61510    0.58310   1.00
Zn1      0.38490    0.76110    0.58310   1.00
Zn1      0.23890    0.62380    0.58310   1.00
O2       0.35943    0.60527    0.63107   1.00
O2       0.39473    0.75417    0.63107   1.00
O2       0.24583    0.64057    0.63107   1.00
O2       0.40493    0.57967    0.60517   1.00
O2       0.45360    0.67130    0.56590   1.00
O2       0.31410    0.54080    0.56630   1.00
O2       0.42033    0.82527    0.60517   1.00
O2       0.45920    0.77330    0.56630   1.00
O2       0.32870    0.78230    0.56590   1.00
O2       0.17473    0.59507    0.60517   1.00
O2       0.21770    0.54640    0.56590   1.00
O2       0.22670    0.68590    0.56630   1.00
C1       0.39353    0.58057    0.62337   1.00
C1       0.41943    0.81297    0.62337   1.00
C1       0.18703    0.60647    0.62337   1.00
C1       0.47730    0.73330    0.56030   1.00
C1       0.25600    0.52270    0.56030   1.00
C1       0.26670    0.74400    0.56030   1.00
O1       0.33333    0.66667    0.09197   1.00
Zn1      0.33333    0.66667    0.12107   1.00
Zn1      0.38490    0.62380    0.08310   1.00
Zn1      0.23890    0.61510    0.08310   1.00
Zn1      0.37620    0.76110    0.08310   1.00
O2       0.39473    0.64057    0.13107   1.00
O2       0.24583    0.60527    0.13107   1.00
O2       0.35943    0.75417    0.13107   1.00
O2       0.42033    0.59507    0.10517   1.00
O2       0.32870    0.54640    0.06590   1.00
O2       0.45920    0.68590    0.06630   1.00
O2       0.17473    0.57967    0.10517   1.00
O2       0.22670    0.54080    0.06630   1.00
O2       0.21770    0.67130    0.06590   1.00
O2       0.40493    0.82527    0.10517   1.00
O2       0.45360    0.78230    0.06590   1.00
O2       0.31410    0.77330    0.06630   1.00
C1       0.41943    0.60647    0.12337   1.00
C1       0.18703    0.58057    0.12337   1.00
C1       0.39353    0.81297    0.12337   1.00
C1       0.26670    0.52270    0.06030   1.00
C1       0.47730    0.74400    0.06030   1.00
C1       0.25600    0.73330    0.06030   1.00
O1       0.33333    0.66667    0.74137   1.00
Zn1      0.33333    0.66667    0.71227   1.00
Zn1      0.29047    0.71823    0.75023   1.00
Zn1      0.28177    0.57223    0.75023   1.00
Zn1      0.42777    0.70953    0.75023   1.00
O2       0.30723    0.72807    0.70227   1.00
O2       0.27193    0.57917    0.70227   1.00
O2       0.42083    0.69277    0.70227   1.00
O2       0.26173    0.75367    0.72817   1.00
O2       0.21307    0.66203    0.76743   1.00
O2       0.35257    0.79253    0.76703   1.00
O2       0.24633    0.50807    0.72817   1.00
O2       0.20747    0.56003    0.76703   1.00
O2       0.33797    0.55103    0.76743   1.00
O2       0.49193    0.73827    0.72817   1.00
O2       0.44897    0.78693    0.76743   1.00
O2       0.43997    0.64743    0.76703   1.00
C1       0.27313    0.75277    0.70997   1.00
C1       0.24723    0.52037    0.70997   1.00
C1       0.47963    0.72687    0.70997   1.00
C1       0.18937    0.60003    0.77303   1.00
C1       0.41067    0.81063    0.77303   1.00
C1       0.39997    0.58933    0.77303   1.00
C5       0.90835    0.95976    0.49148   1.00
H2       0.87766    0.95769    0.50488   1.00
H2       0.87409    0.94757    0.47817   1.00
C5       0.97076    1.03236    0.48944   1.00
H2       0.95620    1.06723    0.48189   1.00
H2       1.01140    1.03075    0.48037   1.00
O_3      0.94043    0.67536    0.47134   1.00
C4       0.85822    0.68443    0.50180   1.00
C3c      0.85525    0.74361    0.49746   1.00
H1       0.83111    0.74643    0.48364   1.00
C3d      0.88904    0.68141    0.52004   1.00
C3       0.88401    0.80017    0.51063   1.00
O2       0.87185    0.85280    0.50663   1.00
C3       0.91887    0.73814    0.53299   1.00
H1       0.94406    0.73435    0.54645   1.00
C2       0.91698    0.79866    0.52873   1.00
C5       0.98439    0.65309    0.47887   1.00
H2       0.97846    0.60753    0.47058   1.00
H2       0.97492    0.64000    0.49531   1.00
C5       1.05715    0.71106    0.47611   1.00
H2       1.06256    0.75715    0.48392   1.00
H2       1.06624    0.72326    0.45963   1.00
C5       1.10844    0.69194    0.48460   1.00
H2       1.10301    0.64568    0.47696   1.00
H2       1.10094    0.68206    0.50119   1.00
H2       1.16137    0.73435    0.48204   1.00
C5       0.83946    0.57552    0.53431   1.00
C5       0.92557    0.90314    0.49481   1.00
H2       0.79337    0.55617    0.52456   1.00
H2       0.82982    0.59475    0.54880   1.00
H2       0.92866    0.88115    0.47997   1.00
H2       0.97636    0.92404    0.50239   1.00
H2       0.99166    1.05510    0.50464   1.00
H2       0.75084    0.42964    0.53152   1.00
H2       0.75892    0.46147    0.55728   1.00
C2       0.77857    0.51383    0.46129   1.00
C3       0.73546    0.51912    0.47575   1.00
O2       0.67333    0.46304    0.48050   1.00
C3       0.84699    0.56751    0.45995   1.00
H1       0.88081    0.56584    0.44869   1.00
C3a      0.76171    0.57627    0.48874   1.00
H1       0.72914    0.57770    0.50049   1.00
C3b      0.87352    0.62320    0.47331   1.00
C4       0.83088    0.62789    0.48788   1.00
O_3      0.89786    0.62646    0.52428   1.00
C5       0.62014    0.46730    0.47074   1.00
H2       0.61914    0.51418    0.47541   1.00
C5       0.55325    0.40419    0.47702   1.00
H2       0.62574    0.46783    0.45393   1.00
H2       0.53912    0.41318    0.49242   1.00
H2       0.56346    0.36109    0.47849   1.00
C5       0.49474    0.38619    0.46188   1.00
H2       0.48886    0.43151    0.45937   1.00
H2       0.44577    0.34374    0.46779   1.00
H2       0.50441    0.36860    0.44704   1.00
C5       0.85197    0.51685    0.53899   1.00
H2       0.89030    0.53300    0.55141   1.00
H2       0.87523    0.50755    0.52535   1.00
C5       0.78578    0.45135    0.54481   1.00
H2       0.79779    0.41199    0.55015   1.00
C5       0.27110    0.26944    0.57849   1.00
H2       0.22359    0.26821    0.57359   1.00
H2       0.31269    0.32297    0.57640   1.00
C5       0.26499    0.24874    0.60110   1.00
H2       0.27644    0.29275    0.61113   1.00
H2       0.30113    0.23032    0.60461   1.00
O_3      0.42891    0.15964    0.50963   1.00
C4       0.31473    0.17405    0.50149   1.00
C3c      0.31011    0.21141    0.51781   1.00
H1       0.35030    0.26338    0.52027   1.00
C3d      0.26133    0.10673    0.49837   1.00
C3       0.25445    0.18232    0.53131   1.00
O2       0.24933    0.22444    0.54538   1.00
C3       0.20649    0.07719    0.51202   1.00
H1       0.16795    0.02463    0.50943   1.00
C2       0.20138    0.11400    0.52872   1.00
C5       0.41817    0.09455    0.50438   1.00
H2       0.45817    0.09757    0.49387   1.00
H2       0.36747    0.06303    0.49699   1.00
C5       0.42049    0.05968    0.52380   1.00
H2       0.38183    0.05838    0.53453   1.00
H2       0.47154    0.09126    0.53094   1.00
C5       0.40681    -0.01268   0.51953   1.00
H2       0.44495    -0.01179   0.50872   1.00
H2       0.35492    -0.04493   0.51305   1.00
H2       0.41020    -0.03679   0.53384   1.00
C5       0.24008    0.07586    0.46508   1.00
C5       0.28040    0.22242    0.56377   1.00
H2       0.27050    0.12952    0.45977   1.00
H2       0.18570    0.06253    0.46659   1.00
H2       0.33575    0.24121    0.56129   1.00
H2       0.25726    0.16973    0.57018   1.00
H2       0.21195    0.20786    0.60489   1.00
H2       0.28034    0.09864    0.42294   1.00
H2       0.18834    0.05119    0.42626   1.00
C2       0.48625    0.25704    0.46129   1.00
C3       0.43111    0.26800    0.45748   1.00
O2       0.42339    0.28991    0.43865   1.00
C3       0.48463    0.22127    0.47907   1.00
H1       0.52684    0.21357    0.48269   1.00
C3a      0.37548    0.24180    0.47105   1.00
H1       0.33194    0.24724    0.46732   1.00
C3b      0.42826    0.19341    0.49219   1.00
C4       0.37302    0.20343    0.48822   1.00
O_3      0.26588    0.06612    0.48348   1.00
C5       0.44551    0.36023    0.43920   1.00
H2       0.41576    0.37163    0.45047   1.00
C5       0.43427    0.38021    0.41797   1.00
H2       0.50066    0.39060    0.44317   1.00
H2       0.37942    0.36463    0.41637   1.00
H2       0.44434    0.34927    0.40684   1.00
C5       0.47984    0.45697    0.41353   1.00
H2       0.47308    0.48712    0.42568   1.00
H2       0.46620    0.47048    0.39870   1.00
H2       0.53482    0.47169    0.41253   1.00
C5       0.24491    0.02938    0.44930   1.00
H2       0.20560    -0.02426   0.45281   1.00
H2       0.29556    0.03291    0.45089   1.00
C5       0.23601    0.04865    0.42757   1.00
H2       0.23269    0.00961    0.41670   1.00
C5       0.76265    0.05178    0.58506   1.00
H2       0.75307    -0.00050   0.58198   1.00
H2       0.71179    0.04794    0.58497   1.00
C5       0.79678    0.07571    0.60609   1.00
H2       0.75802    0.05464    0.61841   1.00
H2       0.82442    0.13239    0.60693   1.00
O_3      0.86503    0.27951    0.50418   1.00
C4       0.82578    0.14057    0.50152   1.00
C3c      0.79504    0.11160    0.52018   1.00
H1       0.74827    0.11012    0.52451   1.00
C3d      0.88617    0.14112    0.49603   1.00
C3       0.82436    0.08511    0.53362   1.00
O2       0.78718    0.05021    0.55042   1.00
C3       0.91619    0.11596    0.50955   1.00
H1       0.96379    0.11967    0.50499   1.00
C2       0.88618    0.08717    0.52858   1.00
C5       0.92900    0.32247    0.49511   1.00
H2       0.92638    0.35680    0.48347   1.00
H2       0.94948    0.29209    0.48771   1.00
C5       0.97768    0.36614    0.51176   1.00
H2       0.97883    0.33183    0.52367   1.00
H2       0.95706    0.39671    0.51891   1.00
C5       1.04943    0.41288    0.50329   1.00
H2       1.04858    0.44695    0.49128   1.00
H2       1.07101    0.38236    0.49677   1.00
H2       1.08391    0.44546    0.51559   1.00
C5       0.89573    0.12756    0.46213   1.00
C5       0.80533    0.09510    0.56713   1.00
H2       0.84097    0.10994    0.45932   1.00
H2       0.90156    0.08207    0.46480   1.00
H2       0.79332    0.13630    0.56383   1.00
H2       0.86094    0.12023    0.57081   1.00
H2       0.83332    0.05712    0.60913   1.00
H2       0.85371    0.12767    0.42077   1.00
H2       0.89035    0.07302    0.42439   1.00
C2       0.74329    0.22884    0.46103   1.00
C3       0.72017    0.15829    0.46013   1.00
O2       0.68465    0.12058    0.44341   1.00
C3       0.79129    0.26821    0.47616   1.00
H1       0.80867    0.32199    0.47758   1.00
C3a      0.74647    0.12931    0.47383   1.00
H1       0.73120    0.07604    0.47220   1.00
C3b      0.81897    0.23967    0.48934   1.00
C4       0.79673    0.16975    0.48822   1.00
O_3      0.92117    0.17362    0.47855   1.00
C5       0.61429    0.08261    0.44777   1.00
H2       0.60383    0.04695    0.46073   1.00
C5       0.57881    0.04155    0.42870   1.00
H2       0.59378    0.11691    0.45157   1.00
H2       0.58512    -0.00414   0.42820   1.00
H2       0.60672    0.07350    0.41535   1.00
C5       0.50267    0.02024    0.42771   1.00
H2       0.47675    -0.00691   0.44188   1.00
H2       0.47739    -0.01422   0.41458   1.00
H2       0.49577    0.06543    0.42560   1.00
C5       0.93647    0.16506    0.44337   1.00
H2       0.98866    0.17220    0.44477   1.00
H2       0.94221    0.21688    0.44324   1.00
C5       0.90184    0.12684    0.42368   1.00
H2       0.93621    0.15176    0.41055   1.00
C5       0.96172    0.91483    0.00923   1.00
H2       0.96033    0.88349    -0.00391   1.00
H2       0.95017    0.88167    0.02278   1.00
C5       1.03371    0.97832    0.01104   1.00
H2       1.06930    0.96529    0.01885   1.00
H2       1.03115    1.01909    0.01975   1.00
O_3      0.67338    0.94144    0.02791   1.00
C4       0.68444    0.85821    -0.00180   1.00
C3c      0.74435    0.85695    0.00281   1.00
H1       0.74776    0.83417    0.01685   1.00
C3d      0.68068    0.88726    -0.02031   1.00
C3       0.80089    0.88572    -0.01037   1.00
O2       0.85440    0.87521    -0.00604   1.00
C3       0.73736    0.91711    -0.03328   1.00
H1       0.73296    0.94094    -0.04696   1.00
C2       0.79861    0.91695    -0.02875   1.00
C5       0.64985    0.98381    0.01992   1.00
H2       0.60392    0.97750    0.02807   1.00
H2       0.63684    0.97295    0.00351   1.00
C5       0.70681    1.05724    0.02230   1.00
H2       0.75329    1.06307    0.01463   1.00
H2       0.71894    1.06769    0.03874   1.00
C5       0.68630    1.10686    0.01329   1.00
H2       0.63964    1.10097    0.02078   1.00
H2       0.67648    1.09801    -0.00328   1.00
H2       0.72797    1.16032    0.01557   1.00
C5       0.57473    0.83480    -0.03458   1.00
C5       0.90407    0.93031    0.00552   1.00
H2       0.55623    0.78953    -0.02452   1.00
H2       0.59440    0.82468    -0.04891   1.00
H2       0.88176    0.93392    0.02024   1.00
H2       0.92404    0.98041    -0.00241   1.00
H2       1.05623    0.99840    -0.00425   1.00
H2       0.42925    0.74408    -0.03165   1.00
H2       0.46125    0.75093    -0.05733   1.00
C2       0.51374    0.77851    0.03868   1.00
C3       0.52008    0.73499    0.02461   1.00
O2       0.46479    0.67197    0.02016   1.00
C3       0.56646    0.84745    0.03966   1.00
H1       0.56399    0.88164    0.05062   1.00
C3a      0.57728    0.76131    0.01164   1.00
H1       0.57946    0.72830    0.00018   1.00
C3b      0.62217    0.87397    0.02630   1.00
C4       0.62788    0.83090    0.01212   1.00
O_3      0.62491    0.89440    -0.02485   1.00
C5       0.47032    0.62022    0.03040   1.00
H2       0.51775    0.61997    0.02592   1.00
C5       0.40803    0.55222    0.02443   1.00
H2       0.47072    0.62698    0.04715   1.00
H2       0.41745    0.53734    0.00919   1.00
H2       0.36421    0.56121    0.02269   1.00
C5       0.39117    0.49509    0.03999   1.00
H2       0.43714    0.49051    0.04273   1.00
H2       0.34936    0.44530    0.03433   1.00
H2       0.37316    0.50532    0.05467   1.00
C5       0.51512    0.84547    -0.03961   1.00
H2       0.53057    0.88281    -0.05229   1.00
H2       0.50518    0.86923    -0.02621   1.00
C5       0.45040    0.77814    -0.04514   1.00
H2       0.41032    0.78871    -0.05074   1.00
C5       0.26933    0.27119    -0.07852   1.00
H2       0.26815    0.22369    -0.07363   1.00
H2       0.32286    0.31280    -0.07644   1.00
C5       0.24857    0.26506    -0.10112   1.00
H2       0.29257    0.27654    -0.11116   1.00
H2       0.23011    0.30118    -0.10462   1.00
O_3      0.15954    0.42886    -0.00961   1.00
C4       0.17405    0.31473    -0.00149   1.00
C3c      0.21139    0.31014    -0.01782   1.00
H1       0.26334    0.35036    -0.02029   1.00
C3d      0.10676    0.26131    0.00164   1.00
C3       0.18230    0.25448    -0.03132   1.00
O2       0.22440    0.24939    -0.04540   1.00
C3       0.07721    0.20646    -0.01200   1.00
H1       0.02467    0.16790    -0.00941   1.00
C2       0.11400    0.20138    -0.02872   1.00
C5       0.09444    0.41808    -0.00434   1.00
H2       0.09746    0.45806    0.00617   1.00
H2       0.06296    0.36737    0.00305   1.00
C5       0.05951    0.42037    -0.02376   1.00
H2       0.05822    0.38173    -0.03449   1.00
H2       0.09105    0.47142    -0.03090   1.00
C5       -0.01285   0.40664    -0.01947   1.00
H2       -0.01197   0.44477    -0.00866   1.00
H2       -0.04506   0.35474    -0.01299   1.00
H2       -0.03701   0.41001    -0.03377   1.00
C5       0.07596    0.24003    0.03494   1.00
C5       0.22232    0.28045    -0.06379   1.00
H2       0.12964    0.27048    0.04024   1.00
H2       0.06266    0.18567    0.03343   1.00
H2       0.24108    0.33579    -0.06130   1.00
H2       0.16961    0.25728    -0.07019   1.00
H2       0.20771    0.21201    -0.10491   1.00
H2       0.09882    0.28030    0.07707   1.00
H2       0.05141    0.18829    0.07376   1.00
C2       0.25704    0.48624    0.03871   1.00
C3       0.26805    0.43114    0.04251   1.00
O2       0.29002    0.42344    0.06133   1.00
C3       0.22121    0.48460    0.02094   1.00
H1       0.21348    0.52679    0.01733   1.00
C3a      0.24186    0.37551    0.02894   1.00
H1       0.24734    0.33199    0.03266   1.00
C3b      0.19336    0.42824    0.00782   1.00
C4       0.20343    0.37302    0.01178   1.00
O_3      0.06616    0.26581    0.01654   1.00
C5       0.36035    0.44559    0.06077   1.00
H2       0.37174    0.41586    0.04949   1.00
C5       0.38039    0.43437    0.08199   1.00
H2       0.39067    0.50075    0.05680   1.00
H2       0.36485    0.37954    0.08359   1.00
H2       0.34945    0.44442    0.09313   1.00
C5       0.45716    0.47998    0.08641   1.00
H2       0.48730    0.47325    0.07426   1.00
H2       0.47071    0.46636    0.10124   1.00
H2       0.47184    0.53495    0.08742   1.00
C5       0.02950    0.24483    0.05073   1.00
H2       -0.02414   0.20549    0.04722   1.00
H2       0.03299    0.29546    0.04914   1.00
C5       0.04884    0.23594    0.07245   1.00
H2       0.00981    0.23260    0.08333   1.00
C5       0.05178    0.76265    -0.08506   1.00
H2       -0.00050   0.75307    -0.08198   1.00
H2       0.04794    0.71179    -0.08497   1.00
C5       0.07571    0.79678    -0.10609   1.00
H2       0.05464    0.75802    -0.11841   1.00
H2       0.13239    0.82442    -0.10693   1.00
O_3      0.27951    0.86503    -0.00418   1.00
C4       0.14057    0.82578    -0.00152   1.00
C3c      0.11160    0.79504    -0.02018   1.00
H1       0.11012    0.74827    -0.02451   1.00
C3d      0.14112    0.88617    0.00397   1.00
C3       0.08511    0.82436    -0.03362   1.00
O2       0.05021    0.78718    -0.05042   1.00
C3       0.11596    0.91619    -0.00955   1.00
H1       0.11967    0.96379    -0.00499   1.00
C2       0.08717    0.88618    -0.02858   1.00
C5       0.32247    0.92900    0.00489   1.00
H2       0.35680    0.92638    0.01653   1.00
H2       0.29209    0.94948    0.01229   1.00
C5       0.36614    0.97768    -0.01176   1.00
H2       0.33183    0.97883    -0.02367   1.00
H2       0.39671    0.95706    -0.01891   1.00
C5       0.41288    1.04943    -0.00329   1.00
H2       0.44695    1.04858    0.00872   1.00
H2       0.38236    1.07101    0.00323   1.00
H2       0.44546    1.08391    -0.01559   1.00
C5       0.12756    0.89573    0.03787   1.00
C5       0.09510    0.80533    -0.06713   1.00
H2       0.10994    0.84097    0.04068   1.00
H2       0.08207    0.90156    0.03520   1.00
H2       0.13630    0.79332    -0.06383   1.00
H2       0.12023    0.86094    -0.07081   1.00
H2       0.05712    0.83332    -0.10913   1.00
H2       0.12767    0.85371    0.07923   1.00
H2       0.07302    0.89035    0.07561   1.00
C2       0.22884    0.74329    0.03897   1.00
C3       0.15829    0.72017    0.03987   1.00
O2       0.12058    0.68465    0.05659   1.00
C3       0.26821    0.79129    0.02384   1.00
H1       0.32199    0.80867    0.02242   1.00
C3a      0.12931    0.74647    0.02617   1.00
H1       0.07604    0.73120    0.02780   1.00
C3b      0.23967    0.81897    0.01066   1.00
C4       0.16975    0.79673    0.01178   1.00
O_3      0.17362    0.92117    0.02145   1.00
C5       0.08261    0.61429    0.05223   1.00
H2       0.04695    0.60383    0.03927   1.00
C5       0.04155    0.57881    0.07130   1.00
H2       0.11691    0.59378    0.04843   1.00
H2       -0.00414   0.58512    0.07180   1.00
H2       0.07350    0.60672    0.08465   1.00
C5       0.02024    0.50267    0.07229   1.00
H2       -0.00691   0.47675    0.05812   1.00
H2       -0.01422   0.47739    0.08542   1.00
H2       0.06543    0.49577    0.07440   1.00
C5       0.16506    0.93647    0.05663   1.00
H2       0.17220    0.98866    0.05523   1.00
H2       0.21688    0.94221    0.05676   1.00
C5       0.12684    0.90184    0.07632   1.00
H2       0.15176    0.93621    0.08945   1.00
C5       0.07684    0.29514    0.41279   1.00
H2       0.10895    0.27271    0.40859   1.00
H2       0.10857    0.35071    0.40981   1.00
C5       0.01204    0.26364    0.39939   1.00
H2       0.02309    0.28904    0.38430   1.00
H2       -0.02883   0.26926    0.40695   1.00
O_3      0.05744    0.36116    0.51494   1.00
C4       0.14181    0.31509    0.49838   1.00
C3c      0.14084    0.32359    0.47730   1.00
H1       0.16187    0.37428    0.47103   1.00
C3d      0.11503    0.24868    0.50622   1.00
C3       0.11207    0.26723    0.46406   1.00
O2       0.12044    0.27989    0.44354   1.00
C3       0.08517    0.19237    0.49310   1.00
H1       0.06311    0.14230    0.49988   1.00
C2       0.08310    0.20001    0.47177   1.00
C5       0.01716    0.32015    0.53118   1.00
H2       0.02398    0.35049    0.54519   1.00
H2       0.02976    0.27961    0.53488   1.00
C5       -0.05703   0.28684    0.52468   1.00
H2       -0.06344   0.25808    0.51036   1.00
H2       -0.06921   0.32776    0.52121   1.00
C5       -0.10444   0.23922    0.54126   1.00
H2       -0.09796   0.26751    0.55564   1.00
H2       -0.09391   0.19698    0.54424   1.00
H2       -0.15852   0.21652    0.53641   1.00
C5       0.17113    0.24229    0.53412   1.00
C5       0.06365    0.28222    0.43557   1.00
H2       0.21532    0.29428    0.53161   1.00
H2       0.18185    0.20447    0.52661   1.00
H2       0.05939    0.32450    0.44279   1.00
H2       0.01447    0.23389    0.43830   1.00
H2       -0.00698   0.20841    0.39639   1.00
H2       0.26447    0.30682    0.56745   1.00
H2       0.25917    0.22737    0.55958   1.00
C2       0.22157    0.48380    0.53960   1.00
C3       0.26553    0.46387    0.53064   1.00
O2       0.32962    0.48613    0.53859   1.00
C3       0.15205    0.44902    0.53384   1.00
H1       0.11745    0.46420    0.54003   1.00
C3a      0.23913    0.40921    0.51671   1.00
H1       0.27262    0.39205    0.51088   1.00
C3b      0.12552    0.39329    0.52049   1.00
C4       0.16907    0.37286    0.51184   1.00
O_3      0.11007    0.23719    0.52693   1.00
C5       0.37946    0.53961    0.52667   1.00
H2       0.37872    0.52278    0.51070   1.00
C5       0.44880    0.56053    0.53623   1.00
H2       0.37124    0.58420    0.52653   1.00
H2       0.46458    0.52329    0.53144   1.00
H2       0.44141    0.55512    0.55297   1.00
C5       0.50410    0.63377    0.53063   1.00
H2       0.50699    0.63975    0.51387   1.00
H2       0.55488    0.64506    0.53642   1.00
H2       0.49320    0.67239    0.53757   1.00
C5       0.16286    0.22806    0.55682   1.00
H2       0.12681    0.17264    0.55914   1.00
H2       0.13852    0.25585    0.56351   1.00
C5       0.23157    0.25015    0.56730   1.00
H2       0.22286    0.23262    0.58333   1.00
C5       0.73202    0.72686    0.42265   1.00
H2       0.74200    0.77266    0.41380   1.00
H2       0.67753    0.68865    0.42001   1.00
C5       0.77842    0.69971    0.41481   1.00
H2       0.75647    0.66817    0.40093   1.00
H2       0.78433    0.66818    0.42672   1.00
O_3      0.66831    0.72488    0.52600   1.00
C4       0.68471    0.82661    0.49830   1.00
C3c      0.68101    0.79914    0.47894   1.00
H1       0.63406    0.75519    0.47400   1.00
C3d      0.74605    0.88449    0.50433   1.00
C3       0.73765    0.82706    0.46580   1.00
O2       0.72777    0.80276    0.44623   1.00
C3       0.80294    0.91161    0.49144   1.00
H1       0.84960    0.95452    0.49700   1.00
C2       0.80029    0.88401    0.47189   1.00
C5       0.71131    0.75166    0.54308   1.00
H2       0.68229    0.73561    0.55761   1.00
H2       0.74066    0.80854    0.54264   1.00
C5       0.76088    0.72490    0.54267   1.00
H2       0.78852    0.73929    0.52791   1.00
H2       0.73105    0.66813    0.54331   1.00
C5       0.81131    0.75361    0.56041   1.00
H2       0.78403    0.73984    0.57520   1.00
H2       0.84277    0.81014    0.55940   1.00
H2       0.84616    0.73232    0.56012   1.00
C5       0.73133    0.95810    0.52444   1.00
C5       0.74316    0.74959    0.44487   1.00
H2       0.67617    0.93381    0.52069   1.00
H2       0.76059    1.00126    0.51373   1.00
H2       0.70842    0.70634    0.45490   1.00
H2       0.79669    0.76620    0.44959   1.00
H2       0.82987    0.74247    0.41044   1.00
H2       0.64666    0.98806    0.55030   1.00
H2       0.71491    1.06372    0.53828   1.00
C2       0.51674    0.73941    0.53981   1.00
C3       0.52197    0.78773    0.52533   1.00
O2       0.48419    0.81985    0.52747   1.00
C3       0.56609    0.71849    0.53952   1.00
H1       0.56252    0.68030    0.55006   1.00
C3a      0.57663    0.81507    0.51140   1.00
H1       0.58211    0.85484    0.50118   1.00
C3b      0.62159    0.74738    0.52608   1.00
C4       0.62731    0.79618    0.51190   1.00
O_3      0.75397    0.91031    0.52379   1.00
C5       0.42756    0.79053    0.51428   1.00
H2       0.44396    0.79498    0.49811   1.00
C5       0.38916    0.82951    0.51731   1.00
H2       0.39309    0.73559    0.51789   1.00
H2       0.41610    0.87823    0.50868   1.00
H2       0.39331    0.84355    0.53366   1.00
C5       0.31374    0.78820    0.51081   1.00
H2       0.31039    0.77004    0.49496   1.00
H2       0.28912    0.82013    0.51162   1.00
H2       0.28395    0.74356    0.52104   1.00
C5       0.74217    0.98597    0.54597   1.00
H2       0.79786    1.02015    0.54845   1.00
H2       0.72518    0.94246    0.55671   1.00
C5       0.70285    1.02397    0.55002   1.00
H2       0.71749    1.04956    0.56504   1.00
C5       0.27089    1.00097    0.42194   1.00
H2       0.22446    0.96516    0.41333   1.00
H2       0.30841    0.98384    0.41924   1.00
C5       0.29858    1.07427    0.41381   1.00
H2       0.32933    1.08275    0.39981   1.00
H2       0.33102    1.11209    0.42551   1.00
O_3      0.27699    0.94386    0.52546   1.00
C4       0.17338    0.85810    0.49831   1.00
C3c      0.20004    0.88066    0.47879   1.00
H1       0.24336    0.87671    0.47374   1.00
C3d      0.11631    0.86279    0.50449   1.00
C3       0.17214    0.90939    0.46565   1.00
O2       0.19551    0.92256    0.44597   1.00
C3       0.08923    0.89257    0.49159   1.00
H1       0.04700    0.89730    0.49726   1.00
C2       0.11604    0.91632    0.47189   1.00
C5       0.25152    0.96146    0.54256   1.00
H2       0.26796    0.94887    0.55709   1.00
H2       0.19465    0.93461    0.54237   1.00
C5       0.27923    1.03794    0.54185   1.00
H2       0.26443    1.05078    0.52709   1.00
H2       0.33601    1.06424    0.54225   1.00
C5       0.25196    1.06116    0.55960   1.00
H2       0.26615    1.04807    0.57439   1.00
H2       0.19545    1.03673    0.55883   1.00
H2       0.27395    1.11738    0.55908   1.00
C5       0.04291    0.77593    0.52507   1.00
C5       0.24926    0.99076    0.44426   1.00
H2       0.06634    0.74427    0.52134   1.00
H2       -0.00065   0.76208    0.51452   1.00
H2       0.29279    0.99915    0.45414   1.00
H2       0.23359    1.02845    0.44892   1.00
H2       0.25608    1.08348    0.40953   1.00
H2       0.01268    0.66218    0.55135   1.00
H2       -0.06308   0.65531    0.53957   1.00
C2       0.26068    0.77740    0.53980   1.00
C3       0.21137    0.73403    0.52559   1.00
O2       0.17851    0.66420    0.52803   1.00
C3       0.28251    0.84786    0.53924   1.00
H1       0.32146    0.88267    0.54957   1.00
C3a      0.18398    0.76129    0.51166   1.00
H1       0.14348    0.72685    0.50165   1.00
C3b      0.25360    0.87446    0.52581   1.00
C4       0.20382    0.83112    0.51189   1.00
O_3      0.09138    0.84612    0.52407   1.00
C5       0.20653    0.63557    0.51484   1.00
H2       0.20150    0.64688    0.49865   1.00
C5       0.16680    0.55835    0.51822   1.00
H2       0.26153    0.65551    0.51824   1.00
H2       0.11771    0.53675    0.50979   1.00
H2       0.15353    0.54943    0.53463   1.00
C5       0.20694    0.52302    0.51169   1.00
H2       0.22440    0.53687    0.49576   1.00
H2       0.17442    0.46657    0.51277   1.00
H2       0.25196    0.53779    0.52176   1.00
C5       0.01606    0.76028    0.54672   1.00
H2       -0.01739   0.78262    0.54924   1.00
H2       0.06017    0.78686    0.55726   1.00
C5       -0.02264   0.68317    0.55111   1.00
H2       -0.04745   0.67328    0.56624   1.00
C5       0.05781    0.13702    0.99789   1.00
H2       0.02617    0.08067    0.99899   1.00
H2       0.06144    0.14917    0.98146   1.00
C5       0.02227    0.17029    1.00937   1.00
H2       -0.01811   0.17062    0.99982   1.00
H2       0.06029    0.22367    1.01359   1.00
O_3      0.41041    0.28101    1.00264   1.00
C4       0.31506    0.14047    1.00162   1.00
C3c      0.25268    0.13515    0.99610   1.00
H1       0.24717    0.15238    0.98130   1.00
C3d      0.32086    0.11682    1.02087   1.00
C3       0.19697    0.10861    1.00959   1.00
O2       0.13525    0.09729    1.00227   1.00
C3       0.26591    0.09158    1.03447   1.00
H1       0.27354    0.07631    1.04933   1.00
C2       0.20271    0.08654    1.02922   1.00
C5       0.45673    0.29915    1.01894   1.00
H2       0.51084    0.32716    1.01377   1.00
H2       0.44832    0.25313    1.02754   1.00
C5       0.44483    0.34537    1.03300   1.00
H2       0.39027    0.31810    1.03772   1.00
H2       0.45398    0.39142    1.02431   1.00
C5       0.49166    0.36563    1.05160   1.00
H2       0.54621    0.39247    1.04699   1.00
H2       0.48092    0.31987    1.06067   1.00
H2       0.48329    0.40060    1.06147   1.00
C5       0.38924    0.06955    1.02144   1.00
C5       0.12796    0.15473    1.00616   1.00
H2       0.38922    0.06563    1.00463   1.00
H2       0.34732    0.02060    1.02766   1.00
H2       0.16885    0.20046    0.99822   1.00
H2       0.13159    0.16729    1.02269   1.00
H2       -0.00373   0.14097    1.02339   1.00
H2       0.49217    0.04727    1.00299   1.00
H2       0.43712    -0.02075   1.02027   1.00
C2       0.48860    0.22771    0.96218   1.00
C3       0.43953    0.15777    0.96066   1.00
O2       0.45450    0.11374    0.95041   1.00
C3       0.47708    0.26815    0.97622   1.00
H1       0.51278    0.32219    0.97738   1.00
C3a      0.38169    0.12974    0.97339   1.00
H1       0.34660    0.07540    0.97286   1.00
C3b      0.42064    0.23969    0.98931   1.00
C4       0.37244    0.16996    0.98800   1.00
O_3      0.38264    0.12565    1.02760   1.00
C5       0.42392    0.09897    0.93104   1.00
H2       0.36731    0.07488    0.93217   1.00
C5       0.44186    0.04924    0.92084   1.00
H2       0.44382    0.14614    0.92169   1.00
H2       0.40722    -0.00285   0.92688   1.00
H2       0.49437    0.06333    0.92575   1.00
C5       0.43741    0.04979    0.89750   1.00
H2       0.38640    0.04097    0.89292   1.00
H2       0.44514    0.00909    0.89074   1.00
H2       0.47790    0.09924    0.89102   1.00
C5       0.45713    0.08084    1.02949   1.00
H2       0.45278    0.07299    1.04622   1.00
H2       0.49646    0.13514    1.02682   1.00
C5       0.47861    0.03338    1.01925   1.00
H2       0.52440    0.03795    1.02693   1.00
C5       0.70867    0.75465    1.06902   1.00
H2       0.74707    0.75844    1.08020   1.00
H2       0.66406    0.70256    1.07079   1.00
C5       0.68835    0.80900    1.07388   1.00
H2       0.64975    0.79118    1.08625   1.00
H2       0.66685    0.81980    1.06012   1.00
O_3      0.74604    0.68201    0.96883   1.00
C4       0.82651    0.68461    1.00174   1.00
C3c      0.79196    0.68592    1.01927   1.00
H1       0.74237    0.64293    1.02276   1.00
C3d      0.89151    0.74074    0.99761   1.00
C3       0.82011    0.74269    1.03236   1.00
O2       0.78727    0.73690    1.05044   1.00
C3       0.91910    0.79788    1.01041   1.00
H1       0.96801    0.84070    1.00624   1.00
C2       0.88452    0.80036    1.02808   1.00
C5       0.78544    0.72295    0.95246   1.00
H2       0.77321    0.69379    0.93796   1.00
H2       0.84107    0.74531    0.95550   1.00
C5       0.76959    0.78029    0.94994   1.00
H2       0.77999    0.80825    0.96460   1.00
H2       0.71407    0.75740    0.94672   1.00
C5       0.81229    0.82886    0.93284   1.00
H2       0.80251    0.80118    0.91818   1.00
H2       0.86767    0.85354    0.93637   1.00
H2       0.79891    0.86955    0.93093   1.00
C5       0.96463    0.71230    0.98260   1.00
C5       0.74159    0.76192    1.04820   1.00
H2       0.93184    0.65733    0.98632   1.00
H2       1.00300    0.73722    0.99494   1.00
H2       0.70188    0.73118    1.03666   1.00
H2       0.76770    0.81633    1.04311   1.00
H2       0.73314    0.85744    1.07937   1.00
H2       0.98974    0.61572    0.96118   1.00
H2       1.06311    0.67724    0.97571   1.00
C2       0.74032    0.51686    0.96014   1.00
C3       0.77747    0.51542    0.97715   1.00
O2       0.80094    0.46976    0.97796   1.00
C3       0.72972    0.57301    0.95787   1.00
H1       0.70000    0.57480    0.94530   1.00
C3a      0.80439    0.57019    0.99104   1.00
H1       0.83599    0.57018    1.00333   1.00
C3b      0.75840    0.62842    0.97134   1.00
C4       0.79620    0.62741    0.98806   1.00
O_3      0.92532    0.74418    0.97978   1.00
C5       0.75885    0.41445    0.99071   1.00
H2       0.75779    0.43204    1.00646   1.00
C5       0.78878    0.36700    0.99108   1.00
H2       0.70563    0.38617    0.98480   1.00
H2       0.83275    0.38846    1.00176   1.00
H2       0.80992    0.36845    0.97571   1.00
C5       0.73603    0.29318    0.99704   1.00
H2       0.71158    0.29323    1.01165   1.00
H2       0.76089    0.26170    0.99880   1.00
H2       0.69601    0.26796    0.98509   1.00
C5       1.00177    0.71846    0.96277   1.00
H2       1.04289    0.77249    0.96088   1.00
H2       0.96515    0.70673    0.95005   1.00
C5       1.03116    0.67013    0.96210   1.00
H2       1.06376    0.68102    0.94844   1.00
C5       1.00028    0.27051    1.07817   1.00
H2       0.96448    0.22398    1.08675   1.00
H2       0.98301    0.30792    1.08088   1.00
C5       1.07354    0.29829    1.08635   1.00
H2       1.08184    0.32891    1.10037   1.00
H2       1.11142    0.33088    1.07469   1.00
O_3      0.94392    0.27729    0.97463   1.00
C4       0.85811    0.17338    1.00169   1.00
C3c      0.88046    0.19991    1.02123   1.00
H1       0.87636    0.24312    1.02630   1.00
C3d      0.86300    0.11645    0.99548   1.00
C3       0.90919    0.17201    1.03438   1.00
O2       0.92216    0.19522    1.05407   1.00
C3       0.89278    0.08937    1.00839   1.00
H1       0.89767    0.04725    1.00270   1.00
C2       0.91633    0.11605    1.02811   1.00
C5       0.96175    0.25204    0.95752   1.00
H2       0.94922    0.26854    0.94300   1.00
H2       0.93501    0.19517    0.95768   1.00
C5       1.03825    0.27991    0.95828   1.00
H2       1.05103    0.26504    0.97304   1.00
H2       1.06444    0.33667    0.95793   1.00
C5       1.06171    0.25287    0.94053   1.00
H2       1.04869    0.26713    0.92574   1.00
H2       1.03739    0.19636    0.94127   1.00
H2       1.11795    0.27497    0.94109   1.00
C5       0.77638    0.04308    0.97483   1.00
C5       0.99030    0.24906    1.05584   1.00
H2       0.74459    0.06637    0.97855   1.00
H2       0.76254    -0.00054   0.98535   1.00
H2       0.99867    0.29264    1.04598   1.00
H2       1.02811    0.23355    1.05119   1.00
H2       1.08284    0.25583    1.09062   1.00
H2       0.66277    0.01282    0.94848   1.00
H2       0.65599    -0.06297   0.96022   1.00
C2       0.77741    0.26069    0.96020   1.00
C3       0.73400    0.21122    0.97437   1.00
O2       0.66418    0.17825    0.97187   1.00
C3       0.84790    0.28267    0.96080   1.00
H1       0.88274    0.32174    0.95051   1.00
C3a      0.76125    0.18382    0.98830   1.00
H1       0.72679    0.14321    0.99827   1.00
C3b      0.87450    0.25376    0.97424   1.00
C4       0.83112    0.20382    0.98811   1.00
O_3      0.84653    0.09166    0.97588   1.00
C5       0.63534    0.20605    0.98507   1.00
H2       0.64655    0.20093    1.00126   1.00
C5       0.55815    0.16621    0.98164   1.00
H2       0.65519    0.26106    0.98171   1.00
H2       0.53658    0.11706    0.99003   1.00
H2       0.54938    0.15306    0.96521   1.00
C5       0.52261    0.20615    0.98816   1.00
H2       0.53631    0.22349    1.00411   1.00
H2       0.46619    0.17354    0.98704   1.00
H2       0.53737    0.25123    0.97812   1.00
C5       0.76095    0.01640    0.95316   1.00
H2       0.78342    -0.01693   0.95063   1.00
H2       0.78754    0.06060    0.94265   1.00
C5       0.68387    -0.02241   0.94871   1.00
H2       0.67416    -0.04710   0.93357   1.00
C5       0.65127    1.05646    0.91393   1.00
H2       0.69947    1.10278    0.90949   1.00
H2       0.66109    1.01325    0.91244   1.00
C5       0.63382    1.06350    0.93618   1.00
H2       0.66332    1.05016    0.94690   1.00
H2       0.57836    1.02923    0.93898   1.00
O_3      0.39387    0.90813    0.84156   1.00
C4       0.52603    1.01859    0.83483   1.00
C3c      0.56450    1.02124    0.85187   1.00
H1       0.57352    0.97949    0.85491   1.00
C3d      0.51570    1.07397    0.83098   1.00
C3       0.59104    1.07694    0.86535   1.00
O2       0.63502    1.07984    0.88024   1.00
C3       0.54095    1.12890    0.84459   1.00
H1       0.52969    1.16906    0.84140   1.00
C2       0.57934    1.13206    0.86201   1.00
C5       0.34240    0.92185    0.83519   1.00
H2       0.30607    0.88272    0.82436   1.00
H2       0.36480    0.97279    0.82773   1.00
C5       0.30304    0.92138    0.85391   1.00
H2       0.33965    0.95913    0.86498   1.00
H2       0.28038    0.87010    0.86113   1.00
C5       0.24736    0.93834    0.84843   1.00
H2       0.21090    0.90113    0.83727   1.00
H2       0.27014    0.99049    0.84187   1.00
H2       0.21818    0.93628    0.86223   1.00
C5       0.51270    1.09615    0.79736   1.00
C5       0.59835    1.04973    0.89826   1.00
H2       0.53459    1.06380    0.79277   1.00
H2       0.55515    1.14977    0.79916   1.00
H2       0.56037    0.99487    0.89558   1.00
H2       0.56979    1.07493    0.90390   1.00
H2       0.64775    1.11722    0.93972   1.00
H2       0.50030    1.05569    0.75532   1.00
H2       0.54780    1.14769    0.75865   1.00
C2       0.43754    0.84728    0.79454   1.00
C3       0.50522    0.90041    0.79149   1.00
O2       0.53741    0.90679    0.77318   1.00
C3       0.40160    0.85069    0.81165   1.00
H1       0.35035    0.80998    0.81470   1.00
C3a      0.53454    0.95594    0.80510   1.00
H1       0.58498    0.99806    0.80191   1.00
C3b      0.43013    0.90702    0.82478   1.00
C4       0.49703    0.96030    0.82155   1.00
O_3      0.47392    1.07155    0.81530   1.00
C5       0.58307    0.88171    0.77482   1.00
H2       0.62282    0.91014    0.78659   1.00
C5       0.61736    0.89161    0.75411   1.00
H2       0.55552    0.82648    0.77882   1.00
H2       0.65858    0.94580    0.75277   1.00
H2       0.57871    0.88333    0.74232   1.00
C5       0.64607    0.84336    0.75068   1.00
H2       0.68038    0.84845    0.76344   1.00
H2       0.67549    0.85592    0.73625   1.00
H2       0.60427    0.78907    0.74941   1.00
C5       0.46505    1.09374    0.78069   1.00
H2       0.45257    1.13473    0.78358   1.00
H2       0.41639    1.04424    0.78185   1.00
C5       0.49634    1.10139    0.75944   1.00
H2       0.46348    1.10656    0.74789   1.00
C5       -0.04423   0.57074    0.91838   1.00
H2       -0.08694   0.58030    0.91530   1.00
H2       0.00278    0.62161    0.91829   1.00
C5       -0.05441   0.53664    0.93941   1.00
H2       -0.03674   0.57541    0.95174   1.00
H2       -0.02536   0.50901    0.94026   1.00
O_3      0.08118    0.46834    0.83752   1.00
C4       -0.01854   0.50755    0.83485   1.00
C3c      -0.01677   0.53831    0.85351   1.00
H1       0.02850    0.58509    0.85784   1.00
C3d      -0.07838   0.44714    0.82936   1.00
C3       -0.07259   0.50899    0.86695   1.00
O2       -0.07032   0.54618    0.88374   1.00
C3       -0.13355   0.41712    0.84288   1.00
H1       -0.17743   0.36951    0.83833   1.00
C2       -0.13234   0.44715    0.86191   1.00
C5       0.06018    0.40436    0.82845   1.00
H2       0.09714    0.40698    0.81682   1.00
H2       0.00932    0.38386    0.82105   1.00
C5       0.05519    0.35571    0.84511   1.00
H2       0.01972    0.35456    0.85702   1.00
H2       0.10638    0.37635    0.85226   1.00
C5       0.03020    0.28395    0.83665   1.00
H2       0.06512    0.28480    0.82464   1.00
H2       -0.02190   0.26235    0.83013   1.00
H2       0.02832    0.24949    0.84896   1.00
C5       -0.10150   0.43754    0.79546   1.00
C5       -0.04357   0.52805    0.90046   1.00
H2       -0.06436   0.49231    0.79265   1.00
H2       -0.15281   0.43170    0.79813   1.00
H2       0.00964    0.54007    0.89716   1.00
H2       -0.07404   0.47244    0.90414   1.00
H2       -0.10954   0.50009    0.94245   1.00
H2       -0.05936   0.47954    0.75410   1.00
H2       -0.15066   0.44287    0.75772   1.00
C2       0.15222    0.59004    0.79436   1.00
C3       0.10478    0.61314    0.79345   1.00
O2       0.10258    0.64864    0.77673   1.00
C3       0.14360    0.54206    0.80949   1.00
H1       0.18002    0.52470    0.81092   1.00
C3a      0.04950    0.58684    0.80715   1.00
H1       0.01149    0.60210    0.80552   1.00
C3b      0.08739    0.51438    0.82267   1.00
C4       0.03969    0.53660    0.82155   1.00
O_3      -0.08086   0.41213    0.81188   1.00
C5       0.13495    0.71900    0.78108   1.00
H2       0.10973    0.72946    0.79404   1.00
C5       0.12935    0.75445    0.76201   1.00
H2       0.18976    0.73953    0.78489   1.00
H2       0.07735    0.74813    0.76151   1.00
H2       0.13340    0.72653    0.74866   1.00
C5       0.18418    0.83060    0.76101   1.00
H2       0.18293    0.85653    0.77518   1.00
H2       0.17499    0.85586    0.74788   1.00
H2       0.23627    0.83751    0.75891   1.00
C5       -0.10472   0.39679    0.77671   1.00
H2       -0.14976   0.34459    0.77811   1.00
H2       -0.05863   0.39107    0.77658   1.00
C5       -0.10832   0.43140    0.75702   1.00
H2       -0.11776   0.39701    0.74389   1.00
C5       0.42869    0.38423    0.91830   1.00
H2       0.41929    0.33203    0.91519   1.00
H2       0.37776    0.38024    0.91818   1.00
C5       0.46259    0.40802    0.93936   1.00
H2       0.42371    0.38674    0.95165   1.00
H2       0.49009    0.46469    0.94025   1.00
O_3      0.53130    0.61272    0.83761   1.00
C4       0.49245    0.47390    0.83485   1.00
C3c      0.46157    0.44470    0.85347   1.00
H1       0.41469    0.44303    0.85778   1.00
C3d      0.55299    0.47469    0.82939   1.00
C3       0.49089    0.41821    0.86692   1.00
O2       0.45360    0.38308    0.88367   1.00
C3       0.58300    0.44953    0.84291   1.00
H1       0.63071    0.45343    0.83839   1.00
C2       0.55285    0.42050    0.86191   1.00
C5       0.59533    0.65590    0.82860   1.00
H2       0.59272    0.69028    0.81698   1.00
H2       0.61601    0.62570    0.82120   1.00
C5       0.64379    0.69949    0.84531   1.00
H2       0.64493    0.66512    0.85720   1.00
H2       0.62297    0.72987    0.85246   1.00
C5       0.71558    0.74646    0.83690   1.00
H2       0.71475    0.78060    0.82492   1.00
H2       0.73736    0.71612    0.83039   1.00
H2       0.74989    0.77898    0.84925   1.00
C5       0.56294    0.46152    0.79549   1.00
C5       0.47148    0.42779    0.90042   1.00
H2       0.50817    0.44379    0.79264   1.00
H2       0.56889    0.41609    0.79814   1.00
H2       0.45935    0.46892    0.89714   1.00
H2       0.52706    0.45302    0.90415   1.00
H2       0.49921    0.38954    0.94241   1.00
H2       0.52125    0.46191    0.75411   1.00
H2       0.55809    0.40742    0.75772   1.00
C2       0.40995    0.56218    0.79436   1.00
C3       0.38703    0.49168    0.79341   1.00
O2       0.35174    0.45408    0.77665   1.00
C3       0.45776    0.60149    0.80954   1.00
H1       0.47499    0.65522    0.81101   1.00
C3a      0.41333    0.46269    0.80711   1.00
H1       0.39821    0.40947    0.80544   1.00
C3b      0.48544    0.57295    0.82272   1.00
C4       0.46340    0.50308    0.82155   1.00
O_3      0.58812    0.50743    0.81195   1.00
C5       0.28134    0.41591    0.78094   1.00
H2       0.27085    0.38014    0.79388   1.00
C5       0.24612    0.37499    0.76183   1.00
H2       0.26066    0.45006    0.78476   1.00
H2       0.25259    0.32939    0.76131   1.00
H2       0.27411    0.40710    0.74851   1.00
C5       0.16994    0.35349    0.76078   1.00
H2       0.14393    0.32616    0.77493   1.00
H2       0.14485    0.31913    0.74762   1.00
H2       0.16291    0.39861    0.75870   1.00
C5       0.60380    0.49927    0.77678   1.00
H2       0.65605    0.50655    0.77821   1.00
H2       0.60939    0.55103    0.77668   1.00
C5       0.56943    0.46120    0.75705   1.00
H2       0.60391    0.48632    0.74395   1.00
C5       0.63510    0.39382    0.34449   1.00
H2       0.65480    0.36029    0.33928   1.00
H2       0.63254    0.38970    0.36130   1.00
C5       0.68495    0.46818    0.33795   1.00
H2       0.72869    0.49315    0.34866   1.00
H2       0.65797    0.49792    0.33753   1.00
O_3      0.28451    0.26494    0.34044   1.00
C4       0.35142    0.19144    0.33165   1.00
C3c      0.41846    0.23176    0.33877   1.00
H1       0.42760    0.24190    0.35482   1.00
C3d      0.34070    0.17803    0.31070   1.00
C3       0.47443    0.26033    0.32537   1.00
O2       0.53888    0.29214    0.33363   1.00
C3       0.39620    0.20747    0.29729   1.00
H1       0.38525    0.19774    0.28128   1.00
C2       0.46426    0.24898    0.30421   1.00
C5       0.24004    0.26068    0.32477   1.00
H2       0.18719    0.24215    0.33038   1.00
H2       0.23769    0.22575    0.31246   1.00
C5       0.26753    0.33185    0.31609   1.00
H2       0.32103    0.35115    0.31101   1.00
H2       0.26905    0.36614    0.32847   1.00
C5       0.22333    0.33142    0.29840   1.00
H2       0.16973    0.31176    0.30334   1.00
H2       0.22370    0.29907    0.28575   1.00
H2       0.24334    0.38409    0.29256   1.00
C5       0.25200    0.07238    0.30311   1.00
C5       0.56318    0.36280    0.33561   1.00
H2       0.24902    0.05373    0.31889   1.00
H2       0.28571    0.05953    0.29406   1.00
H2       0.52953    0.37156    0.34606   1.00
H2       0.56450    0.38749    0.32079   1.00
H2       0.70730    0.47006    0.32267   1.00
H2       0.12971    -0.05105   0.31489   1.00
H2       0.17399    -0.06408   0.29389   1.00
C2       0.17859    0.10953    0.37133   1.00
C3       0.21357    0.07341    0.36799   1.00
O2       0.18371    0.00536    0.37310   1.00
C3       0.20407    0.17421    0.36211   1.00
H1       0.17950    0.20392    0.36479   1.00
C3a      0.27142    0.10147    0.35525   1.00
H1       0.29530    0.07148    0.35192   1.00
C3b      0.26029    0.20099    0.34894   1.00
C4       0.29439    0.16456    0.34538   1.00
O_3      0.27543    0.14300    0.30276   1.00
C5       0.21132    -0.00223   0.39145   1.00
H2       0.26755    0.01905    0.39019   1.00
C5       0.17660    -0.07875   0.39586   1.00
H2       0.20116    0.02393    0.40416   1.00
H2       0.20136    -0.10103   0.38641   1.00
H2       0.12285    -0.10219   0.39052   1.00
C5       0.17901    -0.09464   0.41849   1.00
H2       0.23259    -0.06650   0.42396   1.00
H2       0.15850    -0.15023   0.42084   1.00
H2       0.14699    -0.08031   0.42789   1.00
C5       0.18080    0.03614    0.29392   1.00
H2       0.18537    0.04569    0.27727   1.00
H2       0.15183    0.05987    0.30017   1.00
C5       0.14277    -0.04087   0.29846   1.00
H2       0.09418    -0.06662   0.28980   1.00
C5       0.59626    0.38429    0.33795   1.00
H2       0.57405    0.38921    0.32347   1.00
H2       0.57261    0.39970    0.35007   1.00
C5       0.57810    0.30927    0.34092   1.00
H2       0.52556    0.27811    0.34710   1.00
H2       0.61487    0.30667    0.35157   1.00
O_3      0.91710    0.64942    0.36522   1.00
C4       0.84056    0.64893    0.33151   1.00
C3c      0.77450    0.59356    0.33446   1.00
H1       0.74446    0.59375    0.34718   1.00
C3d      0.87849    0.64812    0.31469   1.00
C3       0.74656    0.53690    0.32133   1.00
O2       0.67885    0.48866    0.32371   1.00
C3       0.85132    0.59120    0.30180   1.00
H1       0.88323    0.59181    0.28952   1.00
C2       0.78488    0.53444    0.30469   1.00
C5       0.98398    0.66559    0.35996   1.00
H2       1.02337    0.70935    0.36892   1.00
H2       0.99414    0.67858    0.34353   1.00
C5       0.99057    0.60328    0.36436   1.00
H2       0.94998    0.55909    0.35585   1.00
H2       0.98096    0.59117    0.38084   1.00
C5       1.06133    0.61568    0.35837   1.00
H2       1.10213    0.66003    0.36671   1.00
H2       1.07003    0.62543    0.34179   1.00
H2       1.06570    0.57014    0.36211   1.00
C5       0.94744    0.75290    0.30078   1.00
C5       0.67266    0.43576    0.33651   1.00
H2       0.92136    0.77623    0.30904   1.00
H2       0.92303    0.73548    0.28560   1.00
H2       0.69371    0.45648    0.35185   1.00
H2       0.70080    0.41051    0.33056   1.00
H2       0.57883    0.28529    0.32617   1.00
H2       1.01611    0.89988    0.30311   1.00
H2       0.99876    0.86846    0.27717   1.00
C2       0.93122    0.81909    0.37219   1.00
C3       0.89003    0.81836    0.35601   1.00
O2       0.89206    0.87772    0.35001   1.00
C3       0.93869    0.76125    0.37511   1.00
H1       0.96843    0.75948    0.38767   1.00
C3a      0.85907    0.76142    0.34295   1.00
H1       0.83091    0.76328    0.32995   1.00
C3b      0.90964    0.70565    0.36171   1.00
C4       0.86957    0.70544    0.34545   1.00
O_3      0.94558    0.69890    0.31198   1.00
C5       0.83465    0.87956    0.35751   1.00
H2       0.78620    0.83536    0.35184   1.00
C5       0.84006    0.94601    0.34995   1.00
H2       0.83387    0.87883    0.37442   1.00
H2       0.82244    0.93870    0.33390   1.00
H2       0.89516    0.98552    0.34980   1.00
C5       0.79919    0.96951    0.36305   1.00
H2       0.74549    0.92747    0.36435   1.00
H2       0.79966    1.01460    0.35613   1.00
H2       0.82182    0.98539    0.37854   1.00
C5       1.02202    0.80678    0.29786   1.00
H2       1.04504    0.78722    0.28670   1.00
H2       1.04908    0.81337    0.31253   1.00
C5       1.03044    0.87542    0.29084   1.00
H2       1.08457    0.91114    0.28684   1.00
C5       0.77731    0.39722    0.33948   1.00
H2       0.80584    0.42180    0.32537   1.00
H2       0.81468    0.42039    0.35205   1.00
C5       0.71833    0.41246    0.34215   1.00
H2       0.73728    0.46398    0.34885   1.00
H2       0.67837    0.37361    0.35223   1.00
O_3      0.72984    0.07742    0.36409   1.00
C4       0.80841    0.15948    0.33152   1.00
C3c      0.81634    0.22424    0.33500   1.00
H1       0.84440    0.25326    0.34814   1.00
C3d      0.77250    0.12291    0.31415   1.00
C3       0.78760    0.25212    0.32185   1.00
O2       0.80448    0.31891    0.32485   1.00
C3       0.74272    0.14998    0.30124   1.00
H1       0.71359    0.11903    0.28851   1.00
C2       0.74961    0.21507    0.30466   1.00
C5       0.68147    0.01061    0.35798   1.00
H2       0.68637    -0.02891   0.36670   1.00
H2       0.68676    0.00280    0.34152   1.00
C5       0.61102    0.00097    0.36182   1.00
H2       0.60680    0.04164    0.35356   1.00
H2       0.60608    0.00825    0.37832   1.00
C5       0.55510    -0.06984   0.35490   1.00
H2       0.55930    -0.11071   0.36298   1.00
H2       0.55854    -0.07629   0.33828   1.00
H2       0.50399    -0.07650   0.35823   1.00
C5       0.81340    0.05846    0.30005   1.00
C5       0.75510    0.32160    0.33733   1.00
H2       0.86169    0.08488    0.30886   1.00
H2       0.82142    0.08452    0.28510   1.00
H2       0.75372    0.29907    0.35250   1.00
H2       0.70256    0.29271    0.33079   1.00
H2       0.69500    0.41261    0.32721   1.00
H2       0.89555    -0.00609   0.30249   1.00
H2       0.88372    0.01357    0.27660   1.00
C2       0.88795    0.06870    0.37214   1.00
C3       0.92952    0.11260    0.35656   1.00
O2       0.98871    0.11355    0.35098   1.00
C3       0.82137    0.05851    0.37451   1.00
H1       0.78892    0.02662    0.38661   1.00
C3a      0.90344    0.14354    0.34353   1.00
H1       0.93450    0.17388    0.33097   1.00
C3b      0.79484    0.08761    0.36112   1.00
C4       0.83584    0.13039    0.34545   1.00
O_3      0.75885    0.05690    0.31086   1.00
C5       1.04588    0.17114    0.35932   1.00
H2       1.04900    0.21946    0.35402   1.00
C5       1.10918    0.16911    0.35220   1.00
H2       1.04383    0.16982    0.37622   1.00
H2       1.12096    0.18875    0.33636   1.00
H2       1.09549    0.11456    0.35155   1.00
C5       1.17153    0.21000    0.36605   1.00
H2       1.18113    0.26289    0.36781   1.00
H2       1.21783    0.21210    0.35948   1.00
H2       1.16365    0.18566    0.38132   1.00
C5       0.79560    -0.01503   0.29646   1.00
H2       0.75451    -0.03784   0.28483   1.00
H2       0.77403    -0.04413   0.31078   1.00
C5       0.85812    -0.02010   0.28984   1.00
H2       0.84198    -0.07334   0.28534   1.00
C5       0.83182    0.63321    0.74470   1.00
H2       0.85178    0.59736    0.74549   1.00
H2       0.87726    0.68490    0.74323   1.00
C5       0.78518    0.61632    0.72589   1.00
H2       0.81601    0.63893    0.71193   1.00
H2       0.74984    0.63664    0.72796   1.00
O_3      0.74630    0.72886    0.83546   1.00
C4       0.80826    0.64822    0.83178   1.00
C3c      0.82984    0.65479    0.81152   1.00
H1       0.86868    0.70389    0.80592   1.00
C3d      0.75829    0.58358    0.83886   1.00
C3       0.80123    0.59877    0.79815   1.00
O2       0.83066    0.60715    0.77932   1.00
C3       0.72878    0.52799    0.82548   1.00
H1       0.68892    0.47997    0.83141   1.00
C2       0.74947    0.53390    0.80489   1.00
C5       0.68735    0.69818    0.84775   1.00
H2       0.69000    0.73213    0.86039   1.00
H2       0.67933    0.64944    0.85444   1.00
C5       0.62679    0.68329    0.83439   1.00
H2       0.62528    0.65094    0.82144   1.00
H2       0.63505    0.73236    0.82794   1.00
C5       0.55996    0.64751    0.84644   1.00
H2       0.56131    0.67933    0.85948   1.00
H2       0.55048    0.59741    0.85229   1.00
H2       0.51646    0.63840    0.83654   1.00
C5       0.77208    0.56305    0.87190   1.00
C5       0.79664    0.62641    0.76510   1.00
H2       0.82510    0.60690    0.87248   1.00
H2       0.77390    0.51623    0.86773   1.00
H2       0.80142    0.67616    0.76955   1.00
H2       0.74098    0.58826    0.76397   1.00
H2       0.75480    0.56007    0.72322   1.00
H2       0.83296    0.61096    0.91134   1.00
H2       0.80887    0.52256    0.90676   1.00
C2       0.88771    0.81814    0.87255   1.00
C3       0.92170    0.78062    0.87015   1.00
O2       0.96964    0.78656    0.88416   1.00
C3       0.82943    0.80025    0.86050   1.00
H1       0.80330    0.82908    0.86160   1.00
C3a      0.89607    0.72566    0.85634   1.00
H1       0.92037    0.69502    0.85552   1.00
C3b      0.80280    0.74422    0.84726   1.00
C4       0.83603    0.70631    0.84512   1.00
O_3      0.73162    0.57548    0.85821   1.00
C5       1.03600    0.82884    0.87651   1.00
H2       1.04432    0.80780    0.86216   1.00
C5       1.08588    0.83187    0.89271   1.00
H2       1.04540    0.88129    0.87349   1.00
H2       1.08916    0.78452    0.89167   1.00
H2       1.06315    0.83073    0.90779   1.00
C5       1.15731    0.89551    0.89077   1.00
H2       1.17693    0.89870    0.87512   1.00
H2       1.19357    0.89303    0.90167   1.00
H2       1.15616    0.94320    0.89435   1.00
C5       0.74018    0.55324    0.89285   1.00
H2       0.69219    0.50296    0.89319   1.00
H2       0.72555    0.59302    0.89508   1.00
C5       0.78915    0.55792    0.90978   1.00
H2       0.76192    0.54352    0.92456   1.00
C5       0.57909    0.43442    0.82447   1.00
H2       0.61857    0.41944    0.82633   1.00
H2       0.57219    0.45093    0.83973   1.00
C5       0.60451    0.49412    0.80920   1.00
H2       0.63936    0.54357    0.81673   1.00
H2       0.56041    0.49647    0.80266   1.00
O_3      0.23906    0.17631    0.82419   1.00
C4       0.35174    0.15887    0.83176   1.00
C3c      0.40744    0.22466    0.83483   1.00
H1       0.40769    0.25434    0.84771   1.00
C3d      0.35287    0.12068    0.81505   1.00
C3       0.46299    0.25353    0.82129   1.00
O2       0.51920    0.31456    0.82660   1.00
C3       0.40750    0.14977    0.80132   1.00
H1       0.40499    0.11945    0.78834   1.00
C2       0.46389    0.21651    0.80408   1.00
C5       0.19571    0.13220    0.80893   1.00
H2       0.14189    0.10125    0.81418   1.00
H2       0.21315    0.09656    0.80369   1.00
C5       0.19783    0.17603    0.79118   1.00
H2       0.25186    0.20837    0.78629   1.00
H2       0.17972    0.21095    0.79654   1.00
C5       0.15377    0.13180    0.77354   1.00
H2       0.09983    0.09902    0.77836   1.00
H2       0.17325    0.09860    0.76772   1.00
H2       0.15475    0.16475    0.76089   1.00
C5       0.30224    0.00638    0.82107   1.00
C5       0.51421    0.36924    0.81811   1.00
H2       0.30180    0.01327    0.83776   1.00
H2       0.34965    0.00567    0.81692   1.00
H2       0.46823    0.36936    0.82414   1.00
H2       0.50968    0.36605    0.80120   1.00
H2       0.63447    0.48839    0.79664   1.00
H2       0.21461    -0.11201   0.84523   1.00
H2       0.27832    -0.12171   0.83118   1.00
C2       0.17794    0.07128    0.87110   1.00
C3       0.23537    0.06496    0.87578   1.00
O2       0.23039    0.01739    0.88978   1.00
C3       0.18090    0.10976    0.85383   1.00
H1       0.13848    0.11704    0.85013   1.00
C3a      0.29306    0.09530    0.86299   1.00
H1       0.33505    0.08673    0.86613   1.00
C3b      0.23746    0.13802    0.84078   1.00
C4       0.29410    0.13081    0.84528   1.00
O_3      0.29708    0.05779    0.81050   1.00
C5       0.25893    0.04935    0.90846   1.00
H2       0.31386    0.08880    0.90674   1.00
C5       0.25249    -0.00633   0.92298   1.00
H2       0.23106    0.07409    0.91485   1.00
H2       0.29411    -0.01745   0.91956   1.00
H2       0.20366    -0.05363   0.91941   1.00
C5       0.25457    0.01311    0.94550   1.00
H2       0.30102    0.06312    0.94842   1.00
H2       0.25554    -0.02595   0.95553   1.00
H2       0.20828    0.01595    0.94980   1.00
C5       0.24064    -0.06174   0.81531   1.00
H2       0.24733    -0.07398   0.79941   1.00
H2       0.19468    -0.05581   0.81549   1.00
C5       0.23061    -0.11925   0.82985   1.00
H2       0.18986    -0.16917   0.82400   1.00
C5       0.57600    0.17278    0.83101   1.00
H2       0.59678    0.22878    0.83125   1.00
H2       0.56371    0.15569    0.84702   1.00
C5       0.51071    0.13852    0.81783   1.00
H2       0.46577    0.13184    0.82662   1.00
H2       0.50086    0.08774    0.81251   1.00
O_3      0.80751    0.05576    0.82767   1.00
C4       0.84121    0.19287    0.83173   1.00
C3c      0.77986    0.19130    0.83630   1.00
H1       0.75372    0.16861    0.85035   1.00
C3d      0.87496    0.22354    0.81348   1.00
C3       0.75082    0.21788    0.82278   1.00
O2       0.69534    0.22206    0.82936   1.00
C3       0.84551    0.24888    0.79981   1.00
H1       0.87202    0.26975    0.78568   1.00
C2       0.78313    0.24704    0.80409   1.00
C5       0.84300    0.04579    0.81166   1.00
H2       0.87129    0.01997    0.81682   1.00
H2       0.88023    0.09530    0.80450   1.00
C5       0.79076    0.00093    0.79591   1.00
H2       0.76117    0.02582    0.79116   1.00
H2       0.75425    -0.04857   0.80316   1.00
C5       0.82540    -0.01053   0.77754   1.00
H2       0.85542    -0.03493   0.78219   1.00
H2       0.86009    0.03865    0.76986   1.00
H2       0.78632    -0.04464   0.76640   1.00
C5       0.99099    0.27874    0.81570   1.00
C5       0.63444    0.16299    0.82342   1.00
H2       0.99002    0.27787    0.83257   1.00
H2       0.99549    0.32765    0.81042   1.00
H2       0.63144    0.11682    0.83051   1.00
H2       0.63091    0.15513    0.80661   1.00
H2       0.51533    0.17076    0.80441   1.00
H2       1.11399    0.30547    0.83664   1.00
H2       1.12597    0.37625    0.82075   1.00
C2       0.92808    0.10605    0.87112   1.00
C3       0.94287    0.17383    0.87412   1.00
O2       0.99730    0.21781    0.88606   1.00
C3       0.88169    0.06721    0.85558   1.00
H1       0.86794    0.01463    0.85324   1.00
C3a      0.91282    0.20157    0.86136   1.00
H1       0.92766    0.25470    0.86310   1.00
C3b      0.85359    0.09561    0.84251   1.00
C4       0.86916    0.16332    0.84531   1.00
O_3      0.93271    0.22178    0.80757   1.00
C5       0.97413    0.22477    0.90530   1.00
H2       0.93841    0.24513    0.90398   1.00
C5       1.03706    0.27494    0.91744   1.00
H2       0.94756    0.17486    0.91337   1.00
H2       1.05205    0.32769    0.91257   1.00
H2       1.07967    0.26637    0.91301   1.00
C5       1.02545    0.26714    0.94056   1.00
H2       0.97949    0.27047    0.94452   1.00
H2       1.07015    0.30805    0.94880   1.00
H2       1.01891    0.21750    0.94606   1.00
C5       1.05311    0.27534    0.80851   1.00
H2       1.06066    0.28801    0.79205   1.00
H2       1.04183    0.22169    0.81005   1.00
C5       1.11755    0.32345    0.82068   1.00
H2       1.16295    0.32498    0.81370   1.00
C5       -0.05334   0.35687    0.41507   1.00
H2       -0.06768   0.39222    0.42229   1.00
H2       0.00203    0.37885    0.41802   1.00
C5       -0.09438   0.28549    0.42491   1.00
H2       -0.07056   0.28337    0.43946   1.00
H2       -0.09649   0.24591    0.41444   1.00
O_3      0.00840    0.38804    0.31111   1.00
C4       -0.01811   0.47521    0.33500   1.00
C3c      -0.01201   0.45963    0.35524   1.00
H1       0.03682    0.46910    0.36086   1.00
C3d      -0.08197   0.46339    0.32806   1.00
C3       -0.06856   0.43087    0.36841   1.00
O2       -0.05696   0.42478    0.38859   1.00
C3       -0.13866   0.43355    0.34103   1.00
H1       -0.18710   0.42320    0.33482   1.00
C2       -0.13354   0.41679    0.36147   1.00
C5       -0.03473   0.36267    0.29401   1.00
H2       -0.00547   0.37322    0.27958   1.00
H2       -0.06840   0.38542    0.29285   1.00
C5       -0.07871   0.28593    0.29652   1.00
H2       -0.10649   0.27532    0.31122   1.00
H2       -0.04461   0.26369    0.29747   1.00
C5       -0.12905   0.25437    0.27885   1.00
H2       -0.10167   0.26517    0.26412   1.00
H2       -0.16466   0.27480    0.27832   1.00
H2       -0.15970   0.19810    0.28072   1.00
C5       -0.07551   0.54123    0.30489   1.00
C5       -0.06593   0.35930    0.39235   1.00
H2       -0.02097   0.57731    0.30839   1.00
H2       -0.10778   0.55456    0.31448   1.00
H2       -0.02848   0.35183    0.38332   1.00
H2       -0.11811   0.31741    0.38815   1.00
H2       -0.14747   0.27321    0.42869   1.00
H2       0.00160    0.64937    0.27622   1.00
H2       -0.07089   0.65285    0.28667   1.00
C2       0.15008    0.55555    0.29358   1.00
C3       0.13988    0.60005    0.30619   1.00
O2       0.17219    0.66893    0.30200   1.00
C3       0.10571    0.48448    0.29574   1.00
H1       0.11322    0.44900    0.28668   1.00
C3a      0.08525    0.57308    0.32013   1.00
H1       0.07578    0.60794    0.32885   1.00
C3b      0.05013    0.45792    0.30915   1.00
C4       0.03943    0.50226    0.32146   1.00
O_3      -0.09187   0.47300    0.30789   1.00
C5       0.22851    0.70491    0.31504   1.00
H2       0.21234    0.69719    0.33128   1.00
C5       0.26070    0.78058    0.30968   1.00
H2       0.26683    0.68828    0.31286   1.00
H2       0.23006    0.80087    0.31693   1.00
H2       0.25553    0.78409    0.29298   1.00
C5       0.33610    0.82279    0.31615   1.00
H2       0.34094    0.81441    0.33252   1.00
H2       0.35599    0.87817    0.31356   1.00
H2       0.36902    0.80876    0.30708   1.00
C5       -0.08835   0.54903    0.28265   1.00
H2       -0.14444   0.52205    0.28004   1.00
H2       -0.06762   0.52252    0.27332   1.00
C5       -0.05518   0.62440    0.27630   1.00
H2       -0.07147   0.62820    0.26069   1.00
C5       0.39520    1.06391    0.41121   1.00
H2       0.44146    1.07436    0.41988   1.00
H2       0.35749    1.00929    0.41389   1.00
C5       0.36764    1.10972    0.41926   1.00
H2       0.33668    1.08753    0.43323   1.00
H2       0.33543    1.11523    0.40751   1.00
O_3      0.39016    1.00057    0.30773   1.00
C4       0.49329    1.01805    0.33502   1.00
C3c      0.46642    1.01404    0.35450   1.00
H1       0.42294    0.96686    0.35953   1.00
C3d      0.55057    1.07970    0.32888   1.00
C3       0.49432    1.07068    0.36764   1.00
O2       0.47071    1.06057    0.38730   1.00
C3       0.57766    1.13657    0.34178   1.00
H1       0.62007    1.18345    0.33613   1.00
C2       0.55064    1.13362    0.36144   1.00
C5       0.41597    1.04363    0.29063   1.00
H2       0.39962    1.01460    0.27611   1.00
H2       0.47284    1.07347    0.29089   1.00
C5       0.38850    1.09260    0.29127   1.00
H2       0.40319    1.12024    0.30603   1.00
H2       0.33172    1.06229    0.29081   1.00
C5       0.41614    1.14308    0.27352   1.00
H2       0.40206    1.11580    0.25873   1.00
H2       0.47266    1.17500    0.27435   1.00
H2       0.39433    1.17747    0.27398   1.00
C5       0.62403    1.06592    0.30842   1.00
C5       0.41711    1.07526    0.38892   1.00
H2       0.60037    1.01081    0.31216   1.00
H2       0.66748    1.09551    0.31901   1.00
H2       0.37365    1.04021    0.37899   1.00
H2       0.43302    1.12866    0.38424   1.00
H2       0.41021    1.16137    0.42357   1.00
H2       0.65419    0.98210    0.28225   1.00
H2       0.72993    1.05083    0.29409   1.00
C2       0.40601    0.85006    0.29353   1.00
C3       0.45507    0.85582    0.30781   1.00
O2       0.48774    0.81863    0.30544   1.00
C3       0.38442    0.89887    0.29402   1.00
H1       0.34566    0.89488    0.28363   1.00
C3a      0.48245    0.91047    0.32174   1.00
H1       0.52276    0.91637    0.33180   1.00
C3b      0.41332    0.95438    0.30745   1.00
C4       0.46285    0.96063    0.32143   1.00
O_3      0.57573    1.08788    0.30933   1.00
C5       0.45938    0.76198    0.31863   1.00
H2       0.46427    0.77834    0.33482   1.00
C5       0.49892    0.72426    0.31535   1.00
H2       0.40440    0.72708    0.31518   1.00
H2       0.54792    0.75161    0.32382   1.00
H2       0.51240    0.72856    0.29895   1.00
C5       0.45849    0.64880    0.32187   1.00
H2       0.44085    0.64526    0.33778   1.00
H2       0.49085    0.62470    0.32086   1.00
H2       0.41356    0.61867    0.31176   1.00
C5       0.65114    1.07702    0.28680   1.00
H2       0.68478    1.13279    0.28429   1.00
H2       0.60719    1.05964    0.27621   1.00
C5       0.68966    1.03838    0.28250   1.00
H2       0.71468    1.05324    0.26740   1.00
C5       0.66774    0.60427    0.41137   1.00
H2       0.63193    0.55786    0.41999   1.00
H2       0.65062    0.64181    0.41407   1.00
C5       0.74104    0.63195    0.41950   1.00
H2       0.74955    0.66272    0.43349   1.00
H2       0.77885    0.66437    0.40780   1.00
O_3      0.61052    0.61028    0.30786   1.00
C4       0.52477    0.50671    0.33502   1.00
C3c      0.54735    0.53339    0.35453   1.00
H1       0.54343    0.57672    0.35959   1.00
C3d      0.52944    0.44962    0.32884   1.00
C3       0.57609    0.50549    0.36768   1.00
O2       0.58929    0.52888    0.38735   1.00
C3       0.55922    0.42254    0.34175   1.00
H1       0.56392    0.38029    0.33608   1.00
C2       0.58299    0.44937    0.36144   1.00
C5       0.62809    0.58478    0.29075   1.00
H2       0.61549    0.60121    0.27623   1.00
H2       0.60122    0.52791    0.29096   1.00
C5       0.70457    0.61247    0.29146   1.00
H2       0.71742    0.59768    0.30622   1.00
H2       0.73088    0.66924    0.29106   1.00
C5       0.72775    0.58517    0.27371   1.00
H2       0.71465    0.59934    0.25892   1.00
H2       0.70331    0.52865    0.27449   1.00
H2       0.78397    0.60714    0.27423   1.00
C5       0.44254    0.37621    0.30827   1.00
C5       0.65749    0.58261    0.38906   1.00
H2       0.41090    0.39967    0.31201   1.00
H2       0.42869    0.33267    0.31883   1.00
H2       0.66589    0.62614    0.37917   1.00
H2       0.69517    0.56692    0.38440   1.00
H2       0.75024    0.58944    0.42378   1.00
H2       0.32877    0.34600    0.28200   1.00
H2       0.32188    0.27023    0.29379   1.00
C2       0.44407    0.59401    0.29353   1.00
C3       0.40070    0.54472    0.30775   1.00
O2       0.33087    0.51188    0.30531   1.00
C3       0.51452    0.61581    0.29408   1.00
H1       0.54933    0.65475    0.28375   1.00
C3a      0.42797    0.51733    0.32168   1.00
H1       0.39353    0.47685    0.33169   1.00
C3b      0.54113    0.58691    0.30752   1.00
C4       0.49779    0.53715    0.32144   1.00
O_3      0.51274    0.42467    0.30926   1.00
C5       0.30227    0.53993    0.31850   1.00
H2       0.31360    0.53491    0.33469   1.00
C5       0.22505    0.50022    0.31513   1.00
H2       0.32223    0.59492    0.31510   1.00
H2       0.20345    0.45113    0.32356   1.00
H2       0.21610    0.48693    0.29873   1.00
C5       0.18974    0.54038    0.32166   1.00
H2       0.20362    0.55785    0.33759   1.00
H2       0.13330    0.50787    0.32059   1.00
H2       0.20452    0.58539    0.31159   1.00
C5       0.42685    0.34934    0.28663   1.00
H2       0.44918    0.31588    0.28411   1.00
H2       0.45343    0.39344    0.27608   1.00
C5       0.34974    0.31066    0.28224   1.00
H2       0.33983    0.28583    0.26712   1.00
C5       0.31134    0.38726    0.24820   1.00
H2       0.36039    0.43297    0.24398   1.00
H2       0.32012    0.34332    0.24698   1.00
C5       0.29261    0.39480    0.27025   1.00
H2       0.32061    0.38061    0.28129   1.00
H2       0.23681    0.36145    0.27271   1.00
O_3      0.05904    0.24331    0.17420   1.00
C4       0.19270    0.35192    0.16817   1.00
C3c      0.22948    0.35369    0.18553   1.00
H1       0.23715    0.31124    0.18883   1.00
C3d      0.18412    0.40819    0.16399   1.00
C3       0.25601    0.40941    0.19901   1.00
O2       0.29839    0.41130    0.21427   1.00
C3       0.20935    0.46316    0.17759   1.00
H1       0.19943    0.50407    0.17413   1.00
C2       0.24602    0.46545    0.19533   1.00
C5       0.00901    0.25842    0.16732   1.00
H2       -0.02699   0.21970    0.15634   1.00
H2       0.03292    0.30942    0.15984   1.00
C5       -0.03127   0.25889    0.18569   1.00
H2       0.00495    0.29620    0.19691   1.00
H2       -0.05542   0.20754    0.19292   1.00
C5       -0.08544   0.27737    0.17964   1.00
H2       -0.12150   0.24059    0.16832   1.00
H2       -0.06121   0.32958    0.17306   1.00
H2       -0.11535   0.27598    0.19318   1.00
C5       0.18422    0.43070    0.13027   1.00
C5       0.26010    0.38171    0.23209   1.00
H2       0.20540    0.39746    0.12601   1.00
H2       0.22728    0.48394    0.13221   1.00
H2       0.22148    0.32712    0.22931   1.00
H2       0.23207    0.40789    0.23737   1.00
H2       0.30739    0.44882    0.27369   1.00
H2       0.17417    0.39006    0.08830   1.00
H2       0.22303    0.48200    0.09166   1.00
C2       0.10425    0.18071    0.12785   1.00
C3       0.17259    0.23286    0.12517   1.00
O2       0.20590    0.23854    0.10713   1.00
C3       0.06755    0.18502    0.14461   1.00
H1       0.01573    0.14505    0.14739   1.00
C3a      0.20185    0.28834    0.13880   1.00
H1       0.25291    0.32975    0.13588   1.00
C3b      0.09608    0.24133    0.15776   1.00
C4       0.16367    0.29364    0.15489   1.00
O_3      0.14398    0.40674    0.14796   1.00
C5       0.25028    0.21209    0.10928   1.00
H2       0.28932    0.23990    0.12128   1.00
C5       0.28593    0.22128    0.08884   1.00
H2       0.22144    0.15686    0.11326   1.00
H2       0.32804    0.27512    0.08763   1.00
H2       0.24845    0.21382    0.07675   1.00
C5       0.31338    0.17178    0.08587   1.00
H2       0.34643    0.17611    0.09890   1.00
H2       0.34383    0.18379    0.07165   1.00
H2       0.27090    0.11785    0.08446   1.00
C5       0.13836    0.42940    0.11318   1.00
H2       0.12679    0.47116    0.11579   1.00
H2       0.08903    0.38048    0.11412   1.00
C5       0.17104    0.43639    0.09219   1.00
H2       0.13958    0.44240    0.08033   1.00
C5       0.39963    0.57895    0.16768   1.00
H2       0.40712    0.56442    0.18315   1.00
H2       0.41911    0.55453    0.15707   1.00
C5       0.32275    0.55158    0.16398   1.00
H2       0.29644    0.49677    0.15959   1.00
H2       0.31583    0.58130    0.15170   1.00
O_3      0.64110    0.89899    0.13161   1.00
C4       0.64896    0.84068    0.16850   1.00
C3c      0.59866    0.77151    0.16742   1.00
H1       0.60288    0.73903    0.15619   1.00
C3d      0.64302    0.88191    0.18343   1.00
C3       0.54191    0.74339    0.18052   1.00
O2       0.49931    0.67380    0.18023   1.00
C3       0.58590    0.85438    0.19624   1.00
H1       0.58231    0.88852    0.20698   1.00
C2       0.53418    0.78470    0.19521   1.00
C5       0.64987    0.96483    0.13413   1.00
H2       0.69149    1.00344    0.12437   1.00
H2       0.66188    0.98196    0.15022   1.00
C5       0.58343    0.96141    0.12815   1.00
H2       0.54151    0.92146    0.13751   1.00
H2       0.57228    0.94487    0.11200   1.00
C5       0.58773    1.03063    0.13113   1.00
H2       0.62980    1.07086    0.12194   1.00
H2       0.59650    1.04607    0.14737   1.00
H2       0.53924    1.02752    0.12626   1.00
C5       0.74480    0.96407    0.19628   1.00
C5       0.44460    0.65664    0.16670   1.00
H2       0.77284    0.93983    0.18977   1.00
H2       0.72897    0.94493    0.21207   1.00
H2       0.46433    0.67302    0.15098   1.00
H2       0.41436    0.68168    0.17079   1.00
H2       0.29695    0.55471    0.17807   1.00
H2       0.89161    1.04527    0.19394   1.00
H2       0.85984    1.03490    0.21977   1.00
C2       0.81862    0.93089    0.12763   1.00
C3       0.82242    0.89873    0.14553   1.00
O2       0.88464    0.91034    0.15263   1.00
C3       0.75675    0.92941    0.12318   1.00
H1       0.75161    0.95202    0.10934   1.00
C3a      0.76573    0.86776    0.15869   1.00
H1       0.77076    0.84679    0.17289   1.00
C3b      0.70124    0.90050    0.13662   1.00
C4       0.70545    0.86947    0.15456   1.00
O_3      0.68835    0.95136    0.18413   1.00
C5       0.89379    0.85470    0.14785   1.00
H2       0.85289    0.80643    0.15475   1.00
C5       0.96304    0.87091    0.15650   1.00
H2       0.89358    0.84760    0.13112   1.00
H2       0.95703    0.85965    0.17305   1.00
H2       0.99802    0.92691    0.15497   1.00
C5       0.99319    0.83123    0.14587   1.00
H2       0.95539    0.77577    0.14614   1.00
H2       1.04052    0.83993    0.15365   1.00
H2       1.00762    0.84840    0.12982   1.00
C5       0.79250    1.04092    0.19691   1.00
H2       0.76874    1.06388    0.20651   1.00
H2       0.79656    1.06132    0.18128   1.00
C5       0.86371    1.05999    0.20493   1.00
H2       0.89470    1.11604    0.20718   1.00
C5       0.39724    0.77734    0.16052   1.00
H2       0.42181    0.80586    0.17463   1.00
H2       0.42040    0.81471    0.14795   1.00
C5       0.41248    0.71836    0.15786   1.00
H2       0.46400    0.73731    0.15116   1.00
H2       0.37364    0.67841    0.14777   1.00
O_3      0.07743    0.72985    0.13591   1.00
C4       0.15948    0.80841    0.16848   1.00
C3c      0.22424    0.81634    0.16500   1.00
H1       0.25326    0.84441    0.15186   1.00
C3d      0.12291    0.77249    0.18585   1.00
C3       0.25213    0.78761    0.17815   1.00
O2       0.31891    0.80449    0.17515   1.00
C3       0.14997    0.74271    0.19876   1.00
H1       0.11903    0.71358    0.21149   1.00
C2       0.21507    0.74961    0.19534   1.00
C5       0.01063    0.68147    0.14201   1.00
H2       -0.02890   0.68637    0.13329   1.00
H2       0.00281    0.68675    0.15848   1.00
C5       0.00099    0.61102    0.13818   1.00
H2       0.04166    0.60681    0.14643   1.00
H2       0.00828    0.60609    0.12167   1.00
C5       -0.06982   0.55510    0.14509   1.00
H2       -0.11069   0.55929    0.13701   1.00
H2       -0.07627   0.55853    0.16171   1.00
H2       -0.07648   0.50399    0.14176   1.00
C5       0.05845    0.81338    0.19995   1.00
C5       0.32161    0.75512    0.16267   1.00
H2       0.08487    0.86167    0.19114   1.00
H2       0.08450    0.82140    0.21490   1.00
H2       0.29909    0.75374    0.14750   1.00
H2       0.29273    0.70257    0.16921   1.00
H2       0.41264    0.69502    0.17279   1.00
H2       -0.00612   0.89552    0.19750   1.00
H2       0.01354    0.88369    0.22340   1.00
C2       0.06870    0.88795    0.12786   1.00
C3       0.11259    0.92952    0.14344   1.00
O2       0.11354    0.98871    0.14902   1.00
C3       0.05852    0.82138    0.12549   1.00
H1       0.02663    0.78892    0.11339   1.00
C3a      0.14354    0.90344    0.15648   1.00
H1       0.17387    0.93449    0.16904   1.00
C3b      0.08762    0.79484    0.13888   1.00
C4       0.13039    0.83584    0.15455   1.00
O_3      0.05689    0.75884    0.18914   1.00
C5       0.17112    1.04588    0.14068   1.00
H2       0.21944    1.04900    0.14598   1.00
C5       0.16909    1.10917    0.14781   1.00
H2       0.16981    1.04384    0.12378   1.00
H2       0.18873    1.12095    0.16364   1.00
H2       0.11453    1.09548    0.14846   1.00
C5       0.20998    1.17152    0.13395   1.00
H2       0.26287    1.18113    0.13220   1.00
H2       0.21208    1.21783    0.14053   1.00
H2       0.18564    1.16365    0.11868   1.00
C5       -0.01505   0.79558    0.20353   1.00
H2       -0.03786   0.75448    0.21516   1.00
H2       -0.04414   0.77400    0.18922   1.00
C5       -0.02013   0.85809    0.21015   1.00
H2       -0.07337   0.84194    0.21466   1.00
C5       1.03825    0.59017    0.57948   1.00
H2       1.07812    0.64443    0.58148   1.00
H2       0.98899    0.58966    0.57874   1.00
C5       1.05113    0.56268    0.55947   1.00
H2       1.03101    0.57779    0.54625   1.00
H2       1.02583    0.50606    0.56003   1.00
O_3      0.92684    0.38466    0.66550   1.00
C4       1.01850    0.52614    0.66514   1.00
C3c      1.01431    0.54844    0.64560   1.00
H1       0.96710    0.54466    0.64056   1.00
C3d      1.08077    0.53242    0.67151   1.00
C3       1.07021    0.57493    0.63219   1.00
O2       1.06497    0.60333    0.61430   1.00
C3       1.13612    0.55756    0.65806   1.00
H1       1.18207    0.55917    0.66336   1.00
C2       1.13253    0.57965    0.63816   1.00
C5       0.95235    0.34819    0.67624   1.00
H2       0.91678    0.31546    0.68838   1.00
H2       1.00257    0.38355    0.68337   1.00
C5       0.96150    0.30268    0.66114   1.00
H2       0.99553    0.33519    0.64870   1.00
H2       0.91095    0.26719    0.65425   1.00
C5       0.99150    0.26282    0.67146   1.00
H2       0.95801    0.23061    0.68400   1.00
H2       1.04300    0.29818    0.67773   1.00
H2       0.99640    0.22873    0.66029   1.00
C5       1.10335    0.55650    0.70516   1.00
C5       1.04118    0.55382    0.59871   1.00
H2       1.06314    0.57068    0.70684   1.00
H2       1.15282    0.60352    0.70179   1.00
H2       0.98936    0.51088    0.60255   1.00
H2       1.07511    0.53168    0.59632   1.00
H2       1.10691    0.58441    0.55666   1.00
H2       1.05913    0.56380    0.74572   1.00
H2       1.14943    0.62283    0.74170   1.00
C2       0.84811    0.43810    0.70577   1.00
C3       0.89134    0.50952    0.70508   1.00
O2       0.89019    0.55003    0.72054   1.00
C3       0.86064    0.39740    0.69210   1.00
H1       0.82744    0.34272    0.69188   1.00
C3a      0.94647    0.53825    0.69133   1.00
H1       0.98137    0.59264    0.69179   1.00
C3b      0.91678    0.42593    0.67890   1.00
C4       0.96032    0.49685    0.67845   1.00
O_3      1.08603    0.50650    0.69000   1.00
C5       0.85324    0.58203    0.71449   1.00
H2       0.87649    0.61463    0.70081   1.00
C5       0.85532    0.62665    0.73223   1.00
H2       0.79922    0.54356    0.71100   1.00
H2       0.90546    0.67478    0.73202   1.00
H2       0.85377    0.59957    0.74650   1.00
C5       0.79640    0.64227    0.73171   1.00
H2       0.79546    0.66434    0.71674   1.00
H2       0.80285    0.67935    0.74381   1.00
H2       0.74610    0.59531    0.73450   1.00
C5       1.10980    0.52624    0.72509   1.00
H2       1.15731    0.52309    0.72461   1.00
H2       1.06634    0.47299    0.72622   1.00
C5       1.11004    0.56816    0.74351   1.00
H2       1.12192    0.54889    0.75753   1.00
C5       0.57201    -0.04473   0.58180   1.00
H2       0.58122    -0.08763   0.58495   1.00
H2       0.62302    0.00211    0.58196   1.00
C5       0.53837    -0.05474   0.56070   1.00
H2       0.57737    -0.03725   0.54845   1.00
H2       0.51103    -0.02542   0.55976   1.00
O_3      0.46914    0.08173    0.66227   1.00
C4       0.50755    -0.01854   0.66515   1.00
C3c      0.53858    -0.01697   0.64657   1.00
H1       0.58558    0.02815    0.64229   1.00
C3d      0.44684    -0.07819   0.67057   1.00
C3       0.50927    -0.07278   0.63312   1.00
O2       0.54668    -0.07074   0.61641   1.00
C3       0.41684    -0.13335   0.65705   1.00
H1       0.36902    -0.17707   0.66154   1.00
C2       0.44715    -0.13233   0.63809   1.00
C5       0.40505    0.06107    0.67121   1.00
H2       0.40766    0.09813    0.68281   1.00
H2       0.38415    0.01018    0.67863   1.00
C5       0.35684    0.05636    0.65445   1.00
H2       0.35571    0.02079    0.64258   1.00
H2       0.37788    0.10758    0.64729   1.00
C5       0.28499    0.03174    0.66278   1.00
H2       0.28582    0.06678    0.67474   1.00
H2       0.26301    -0.02038   0.66930   1.00
H2       0.25087    0.03007    0.65039   1.00
C5       0.43646    -0.10131   0.70447   1.00
C5       0.52911    -0.04380   0.59962   1.00
H2       0.49124    -0.06439   0.70737   1.00
H2       0.43037    -0.15275   0.70185   1.00
H2       0.54136    0.00950    0.60289   1.00
H2       0.47356    -0.07402   0.59585   1.00
H2       0.50165    -0.10981   0.55764   1.00
H2       0.47778    -0.05929   0.74588   1.00
H2       0.44072    -0.15065   0.74229   1.00
C2       0.59005    0.15224    0.70563   1.00
C3       0.61276    0.10451    0.70665   1.00
O2       0.64780    0.10209    0.72345   1.00
C3       0.54246    0.14390    0.69040   1.00
H1       0.52541    0.18053    0.68888   1.00
C3a      0.58646    0.04922    0.69295   1.00
H1       0.60141    0.01100    0.69467   1.00
C3b      0.51478    0.08767    0.67722   1.00
C4       0.53661    0.03969    0.67845   1.00
O_3      0.41158    -0.08045   0.68797   1.00
C5       0.71823    0.13412    0.71923   1.00
H2       0.72875    0.10875    0.70633   1.00
C5       0.75316    0.12828    0.73839   1.00
H2       0.73911    0.18897    0.71541   1.00
H2       0.74652    0.07616    0.73894   1.00
H2       0.72509    0.13252    0.75167   1.00
C5       0.82939    0.18281    0.73950   1.00
H2       0.85551    0.18139    0.72539   1.00
H2       0.85426    0.17343    0.75271   1.00
H2       0.83657    0.23502    0.74156   1.00
C5       0.39546    -0.10428   0.72313   1.00
H2       0.34317    -0.14914   0.72167   1.00
H2       0.39004    -0.05801   0.72320   1.00
C5       0.42954    -0.10810   0.74291   1.00
H2       0.39495    -0.11736   0.75597   1.00
C5       0.38429    0.42873    0.58170   1.00
H2       0.33208    0.41932    0.58480   1.00
H2       0.38030    0.37781    0.58181   1.00
C5       0.40809    0.46264    0.56063   1.00
H2       0.38682    0.42378    0.54834   1.00
H2       0.46476    0.49015    0.55975   1.00
O_3      0.61273    0.53133    0.66240   1.00
C4       0.47390    0.49245    0.66515   1.00
C3c      0.44472    0.46158    0.64652   1.00
H1       0.44305    0.41471    0.64221   1.00
C3d      0.47467    0.55298    0.67061   1.00
C3       0.41822    0.49090    0.63308   1.00
O2       0.38310    0.45361    0.61632   1.00
C3       0.44952    0.58300    0.65709   1.00
H1       0.45340    0.63069    0.66162   1.00
C2       0.42050    0.55285    0.63809   1.00
C5       0.65589    0.59536    0.67141   1.00
H2       0.69027    0.59274    0.68303   1.00
H2       0.62568    0.61602    0.67881   1.00
C5       0.69949    0.64382    0.65471   1.00
H2       0.66512    0.64497    0.64281   1.00
H2       0.72988    0.62302    0.64755   1.00
C5       0.74645    0.71562    0.66311   1.00
H2       0.78058    0.71478    0.67510   1.00
H2       0.71609    0.73738    0.66963   1.00
H2       0.77897    0.74994    0.65077   1.00
C5       0.46148    0.56291    0.70451   1.00
C5       0.42783    0.47151    0.59957   1.00
H2       0.44375    0.50814    0.70736   1.00
H2       0.41605    0.56885    0.70186   1.00
H2       0.46896    0.45939    0.60286   1.00
H2       0.45305    0.52709    0.59586   1.00
H2       0.38960    0.49926    0.55759   1.00
H2       0.46185    0.52119    0.74589   1.00
H2       0.40735    0.55802    0.74228   1.00
C2       0.56217    0.40995    0.70564   1.00
C3       0.49168    0.38702    0.70659   1.00
O2       0.45407    0.35171    0.72334   1.00
C3       0.60149    0.45777    0.69046   1.00
H1       0.65523    0.47501    0.68900   1.00
C3a      0.46269    0.41332    0.69289   1.00
H1       0.40946    0.39819    0.69456   1.00
C3b      0.57295    0.48545    0.67728   1.00
C4       0.50308    0.46340    0.67845   1.00
O_3      0.50740    0.58810    0.68806   1.00
C5       0.41591    0.28131    0.71905   1.00
H2       0.38015    0.27083    0.70611   1.00
C5       0.37498    0.24608    0.73815   1.00
H2       0.45007    0.26065    0.71523   1.00
H2       0.32938    0.25254    0.73868   1.00
H2       0.40709    0.27406    0.75148   1.00
C5       0.35350    0.16990    0.73920   1.00
H2       0.32617    0.14389    0.72505   1.00
H2       0.31913    0.14480    0.75236   1.00
H2       0.39862    0.16288    0.74129   1.00
C5       0.49921    0.60376    0.72322   1.00
H2       0.50649    0.65600    0.72180   1.00
H2       0.55097    0.60936    0.72333   1.00
C5       0.46113    0.56937    0.74295   1.00
H2       0.48624    0.60385    0.75605   1.00
C5       0.30973    -0.30783   0.18026   1.00
H2       0.26759    -0.31508   0.17006   1.00
H2       0.29410    -0.30202   0.19576   1.00
C5       0.31841    -0.37134   0.17918   1.00
H2       0.28039    -0.41293   0.18903   1.00
H2       0.37065    -0.35785   0.18416   1.00
O_3      0.59453    0.01710    0.18646   1.00
C4       0.47408    -0.01790   0.16491   1.00
C3c      0.42582    -0.08362   0.17151   1.00
H1       0.40908    -0.09168   0.18713   1.00
C3d      0.49448    -0.00832   0.14442   1.00
C3       0.39919    -0.13991   0.15824   1.00
O2       0.34620    -0.20088   0.16511   1.00
C3       0.46904    -0.06448   0.13127   1.00
H1       0.48800    -0.05505   0.11588   1.00
C2       0.42076    -0.13142   0.13775   1.00
C5       0.65363    0.05255    0.17440   1.00
H2       0.69159    0.10221    0.18129   1.00
H2       0.64072    0.06278    0.15894   1.00
C5       0.68600    0.00803    0.17254   1.00
H2       0.64744    -0.04230   0.16619   1.00
H2       0.69926    -0.00132   0.18804   1.00
C5       0.74956    0.04183    0.15900   1.00
H2       0.78809    0.09233    0.16518   1.00
H2       0.73599    0.04902    0.14333   1.00
H2       0.77337    0.00924    0.15818   1.00
C5       0.51682    0.09409    0.13136   1.00
C5       0.37196    -0.24105   0.17343   1.00
H2       0.49150    0.10430    0.14424   1.00
H2       0.47876    0.06875    0.11896   1.00
H2       0.40557    -0.21437   0.18666   1.00
H2       0.40281    -0.25151   0.16227   1.00
H2       0.30953    -0.39254   0.16344   1.00
H2       0.54436    0.23215    0.13682   1.00
H2       0.50559    0.19639    0.11242   1.00
C2       0.56263    0.15385    0.20503   1.00
C3       0.50028    0.13507    0.19521   1.00
O2       0.47608    0.18011    0.19426   1.00
C3       0.59273    0.11277    0.20205   1.00
H1       0.63953    0.12475    0.20976   1.00
C3a      0.47064    0.07748    0.18237   1.00
H1       0.42497    0.06605    0.17407   1.00
C3b      0.56426    0.05683    0.18876   1.00
C4       0.50284    0.03883    0.17877   1.00
O_3      0.54561    0.05430    0.13754   1.00
C5       0.42376    0.16236    0.20866   1.00
H2       0.38027    0.10978    0.20594   1.00
C5       0.39899    0.21374    0.20641   1.00
H2       0.44316    0.16502    0.22437   1.00
H2       0.36380    0.19844    0.19318   1.00
H2       0.44413    0.26392    0.20250   1.00
C5       0.36372    0.21974    0.22568   1.00
H2       0.32223    0.16836    0.23027   1.00
H2       0.34142    0.25308    0.22290   1.00
H2       0.40076    0.24331    0.23846   1.00
C5       0.57459    0.16175    0.12358   1.00
H2       0.59204    0.15273    0.10871   1.00
H2       0.61834    0.17961    0.13427   1.00
C5       0.55291    0.21601    0.12162   1.00
H2       0.59372    0.26212    0.11396   1.00
C5       1.08125    0.37943    0.09517   1.00
H2       1.08668    0.42004    0.08460   1.00
H2       1.02838    0.33646    0.09311   1.00
C5       1.13345    0.35700    0.08950   1.00
H2       1.11435    0.32015    0.07666   1.00
H2       1.14303    0.33264    0.10280   1.00
O_3      1.01179    0.40655    0.19650   1.00
C4       1.01797    0.49321    0.16495   1.00
C3c      1.01774    0.46039    0.14685   1.00
H1       0.97354    0.41217    0.14291   1.00
C3d      1.07569    0.55648    0.16965   1.00
C3       1.07448    0.48847    0.13374   1.00
O2       1.06738    0.45778    0.11518   1.00
C3       1.13277    0.58393    0.15683   1.00
H1       1.17678    0.63137    0.16143   1.00
C2       1.13368    0.55105    0.13858   1.00
C5       1.05352    0.44263    0.21315   1.00
H2       1.02446    0.42938    0.22767   1.00
H2       1.07785    0.49884    0.21084   1.00
C5       1.10882    0.42358    0.21490   1.00
H2       1.13663    0.43504    0.20019   1.00
H2       1.08398    0.36748    0.21739   1.00
C5       1.15815    0.46259    0.23227   1.00
H2       1.13064    0.45175    0.24699   1.00
H2       1.18474    0.51851    0.22945   1.00
H2       1.19731    0.44688    0.23360   1.00
C5       1.05115    0.63022    0.18612   1.00
C5       1.08979    0.40975    0.11645   1.00
H2       0.99599    0.59970    0.18234   1.00
H2       1.07722    0.67002    0.17421   1.00
H2       1.05797    0.36895    0.12758   1.00
H2       1.14410    0.43328    0.12149   1.00
H2       1.18278    0.40135    0.08435   1.00
H2       0.95787    0.65704    0.20877   1.00
H2       1.02127    0.73126    0.19494   1.00
C2       0.85017    0.40674    0.20652   1.00
C3       0.85044    0.44712    0.19016   1.00
O2       0.80689    0.47320    0.19014   1.00
C3       0.90456    0.39313    0.20813   1.00
H1       0.90495    0.36095    0.22017   1.00
C3a      0.90518    0.47416    0.17626   1.00
H1       0.90659    0.50814    0.16451   1.00
C3b      0.95998    0.42187    0.19466   1.00
C4       0.96071    0.46286    0.17859   1.00
O_3      1.08054    0.58830    0.18800   1.00
C5       0.75099    0.43448    0.17718   1.00
H2       0.76816    0.43486    0.16128   1.00
C5       0.70597    0.46716    0.17773   1.00
H2       0.72098    0.38059    0.18245   1.00
H2       0.72891    0.51260    0.16760   1.00
H2       0.70830    0.48649    0.19342   1.00
C5       0.63151    0.41743    0.17155   1.00
H2       0.63050    0.39455    0.15655   1.00
H2       0.60187    0.44443    0.17048   1.00
H2       0.60507    0.37601    0.18304   1.00
C5       1.05878    0.66503    0.20648   1.00
H2       1.11340    0.70434    0.20859   1.00
H2       1.04567    0.62637    0.21868   1.00
C5       1.01288    0.69704    0.20806   1.00
H2       1.02495    0.72789    0.22215   1.00
C5       0.60388    0.66702    0.08851   1.00
H2       0.55736    0.63122    0.07993   1.00
H2       0.64130    0.64977    0.08580   1.00
C5       0.63165    0.74028    0.08033   1.00
H2       0.66229    0.74861    0.06632   1.00
H2       0.66423    0.77816    0.09200   1.00
O_3      0.61059    0.61059    0.19205   1.00
C4       0.50671    0.52478    0.16498   1.00
C3c      0.53325    0.54715    0.14544   1.00
H1       0.57647    0.54307    0.14037   1.00
C3d      0.44976    0.52965    0.17118   1.00
C3       0.50536    0.57588    0.13230   1.00
O2       0.52858    0.58888    0.11260   1.00
C3       0.42269    0.55943    0.15828   1.00
H1       0.38055    0.56430    0.16397   1.00
C2       0.44938    0.58300    0.13856   1.00
C5       0.58531    0.62839    0.20916   1.00
H2       0.60181    0.61586    0.22368   1.00
H2       0.52845    0.60164    0.20900   1.00
C5       0.61317    0.70489    0.20840   1.00
H2       0.59831    0.71767    0.19364   1.00
H2       0.66994    0.73109    0.20876   1.00
C5       0.58611    0.72833    0.22615   1.00
H2       0.60036    0.71529    0.24094   1.00
H2       0.52960    0.70399    0.22541   1.00
H2       0.60819    0.78456    0.22560   1.00
C5       0.37639    0.44300    0.19183   1.00
C5       0.58241    0.65701    0.11084   1.00
H2       0.39970    0.41122    0.18810   1.00
H2       0.33278    0.42916    0.18131   1.00
H2       0.62599    0.66539    0.12070   1.00
H2       0.56688    0.69482    0.11549   1.00
H2       0.58919    0.74958    0.07607   1.00
H2       0.34613    0.32938    0.21818   1.00
H2       0.27035    0.32259    0.20643   1.00
C2       0.59402    0.44408    0.20647   1.00
C3       0.54456    0.40067    0.19230   1.00
O2       0.51161    0.33085    0.19479   1.00
C3       0.61598    0.51457    0.20587   1.00
H1       0.65504    0.54940    0.21617   1.00
C3a      0.51717    0.42793    0.17837   1.00
H1       0.47657    0.39346    0.16839   1.00
C3b      0.58707    0.54117    0.19244   1.00
C4       0.53715    0.49779    0.17856   1.00
O_3      0.42496    0.51315    0.19078   1.00
C5       0.53943    0.30203    0.18159   1.00
H2       0.53432    0.31325    0.16540   1.00
C5       0.49960    0.22484    0.18502   1.00
H2       0.59443    0.32190    0.18496   1.00
H2       0.45045    0.20327    0.17663   1.00
H2       0.48644    0.21605    0.20144   1.00
C5       0.53956    0.18933    0.17850   1.00
H2       0.55691    0.20304    0.16254   1.00
H2       0.50696    0.13290    0.17961   1.00
H2       0.58463    0.20409    0.18854   1.00
C5       0.34969    0.42755    0.21350   1.00
H2       0.31635    0.45001    0.21602   1.00
H2       0.39389    0.45414    0.22401   1.00
C5       0.31090    0.35047    0.21794   1.00
H2       0.28620    0.34074    0.23308   1.00
C5       0.35833    0.65180    0.65286   1.00
H2       0.34975    0.60813    0.66256   1.00
H2       0.36356    0.63741    0.63713   1.00
C5       0.29620    0.66262    0.65445   1.00
H2       0.25408    0.62646    0.64439   1.00
H2       0.31124    0.71577    0.65005   1.00
O_3      0.68726    0.93090    0.64818   1.00
C4       0.64875    0.80739    0.66842   1.00
C3c      0.58255    0.76128    0.66164   1.00
H1       0.57411    0.74624    0.64587   1.00
C3d      0.65878    0.82558    0.68909   1.00
C3       0.52629    0.73467    0.67492   1.00
O2       0.46461    0.68363    0.66777   1.00
C3       0.60269    0.80019    0.70227   1.00
H1       0.61255    0.81747    0.71783   1.00
C2       0.53530    0.75409    0.69562   1.00
C5       0.72406    0.98845    0.66075   1.00
H2       0.77416    1.02610    0.65403   1.00
H2       0.73362    0.97332    0.67597   1.00
C5       0.68139    1.02262    0.66331   1.00
H2       0.63061    0.98444    0.66948   1.00
H2       0.67270    1.03807    0.64804   1.00
C5       0.71672    1.08458    0.67742   1.00
H2       0.76766    1.12270    0.67141   1.00
H2       0.72328    1.06886    0.69286   1.00
H2       0.68549    1.10976    0.67874   1.00
C5       0.76013    0.84343    0.70178   1.00
C5       0.42603    0.71204    0.66004   1.00
H2       0.76935    0.81877    0.68852   1.00
H2       0.73392    0.80428    0.71385   1.00
H2       0.45342    0.74672    0.64707   1.00
H2       0.41676    0.74252    0.67165   1.00
H2       0.27502    0.65260    0.67020   1.00
H2       0.89675    0.86739    0.69579   1.00
H2       0.86023    0.82656    0.71991   1.00
C2       0.82062    0.89595    0.62835   1.00
C3       0.80003    0.83218    0.63750   1.00
O2       0.84348    0.80598    0.63786   1.00
C3       0.78126    0.92757    0.63198   1.00
H1       0.79464    0.97554    0.62478   1.00
C3a      0.74241    0.80260    0.65032   1.00
H1       0.72961    0.75569    0.65812   1.00
C3b      0.72529    0.89909    0.64525   1.00
C4       0.70550    0.83621    0.65457   1.00
O_3      0.72202    0.87467    0.69621   1.00
C5       0.82431    0.75500    0.62292   1.00
H2       0.77117    0.71228    0.62542   1.00
C5       0.87396    0.72787    0.62453   1.00
H2       0.82763    0.77631    0.60745   1.00
H2       0.85770    0.69120    0.63740   1.00
H2       0.92478    0.77163    0.62869   1.00
C5       0.87873    0.69394    0.60479   1.00
H2       0.82685    0.65400    0.60001   1.00
H2       0.91073    0.66986    0.60708   1.00
H2       0.90318    0.73215    0.59234   1.00
C5       0.82855    0.89901    0.70985   1.00
H2       0.82023    0.91543    0.72499   1.00
H2       0.84761    0.94401    0.69960   1.00
C5       0.88113    0.87497    0.71119   1.00
H2       0.92781    0.91405    0.71906   1.00
C5       0.42806    0.59111    0.67109   1.00
H2       0.40913    0.62781    0.67028   1.00
H2       0.44184    0.58567    0.65530   1.00
C5       0.49160    0.62023    0.68498   1.00
H2       0.53817    0.65742    0.67658   1.00
H2       0.49898    0.57816    0.69074   1.00
O_3      0.18723    0.24503    0.67355   1.00
C4       0.15882    0.35169    0.66826   1.00
C3c      0.22179    0.41019    0.66416   1.00
H1       0.24923    0.41263    0.65048   1.00
C3d      0.12343    0.34994    0.68603   1.00
C3       0.25078    0.46579    0.67769   1.00
O2       0.30825    0.52439    0.67150   1.00
C3       0.15276    0.40467    0.69971   1.00
H1       0.12486    0.40001    0.71349   1.00
C2       0.21675    0.46391    0.69592   1.00
C5       0.14874    0.20015    0.68936   1.00
H2       0.11953    0.14610    0.68418   1.00
H2       0.11191    0.21415    0.69588   1.00
C5       0.19826    0.20570    0.70581   1.00
H2       0.22880    0.26005    0.71058   1.00
H2       0.23437    0.19100    0.69918   1.00
C5       0.16029    0.16014    0.72398   1.00
H2       0.12931    0.10584    0.71929   1.00
H2       0.12597    0.17629    0.73104   1.00
H2       0.19739    0.16372    0.73565   1.00
C5       0.00770    0.29248    0.68255   1.00
C5       0.36722    0.52390    0.67830   1.00
H2       0.01071    0.29248    0.66571   1.00
H2       0.00441    0.33793    0.68744   1.00
H2       0.36931    0.47976    0.67157   1.00
H2       0.36847    0.51942    0.69518   1.00
H2       0.48653    0.64860    0.69812   1.00
H2       -0.11396   0.19911    0.66053   1.00
H2       -0.12530   0.25955    0.67580   1.00
C2       0.07170    0.17796    0.62889   1.00
C3       0.05968    0.23252    0.62530   1.00
O2       0.00744    0.22395    0.61264   1.00
C3       0.11553    0.18390    0.64504   1.00
H1       0.12717    0.14381    0.64786   1.00
C3a      0.08983    0.29028    0.63806   1.00
H1       0.07702    0.32986    0.63583   1.00
C3b      0.14368    0.24042    0.65810   1.00
C4       0.13083    0.29415    0.65470   1.00
O_3      0.06383    0.29159    0.69152   1.00
C5       0.03364    0.25368    0.59355   1.00
H2       0.07067    0.30942    0.59498   1.00
C5       -0.02699   0.24309    0.58059   1.00
H2       0.05972    0.22882    0.58604   1.00
H2       -0.04077   0.28216    0.58497   1.00
H2       -0.07126   0.19262    0.58476   1.00
C5       -0.01266   0.24643    0.55763   1.00
H2       0.03476    0.29483    0.55399   1.00
H2       -0.05557   0.24427    0.54878   1.00
H2       -0.00729   0.20223    0.55254   1.00
C5       -0.05657   0.22818    0.68930   1.00
H2       -0.06576   0.23374    0.70560   1.00
H2       -0.04702   0.18455    0.68824   1.00
C5       -0.11883   0.21400    0.67632   1.00
H2       -0.16586   0.17109    0.68295   1.00
C5       0.17273    0.57597    0.66901   1.00
H2       0.22872    0.59674    0.66876   1.00
H2       0.15562    0.56368    0.65299   1.00
C5       0.13846    0.51069    0.68218   1.00
H2       0.13177    0.46575    0.67340   1.00
H2       0.08769    0.50085    0.68751   1.00
O_3      0.05577    0.80753    0.67233   1.00
C4       0.19287    0.84121    0.66827   1.00
C3c      0.19128    0.77985    0.66371   1.00
H1       0.16858    0.75371    0.64965   1.00
C3d      0.22355    0.87497    0.68652   1.00
C3       0.21787    0.75081    0.67722   1.00
O2       0.22203    0.69532    0.67065   1.00
C3       0.24890    0.84552    0.70018   1.00
H1       0.26978    0.87204    0.71432   1.00
C2       0.24704    0.78313    0.69591   1.00
C5       0.04582    0.84304    0.68835   1.00
H2       0.02000    0.87134    0.68318   1.00
H2       0.09534    0.88027    0.69550   1.00
C5       0.00097    0.79081    0.70410   1.00
H2       0.02584    0.76123    0.70885   1.00
H2       -0.04855   0.75431    0.69685   1.00
C5       -0.01047   0.82548    0.72247   1.00
H2       -0.03487   0.85551    0.71782   1.00
H2       0.03871    0.86016    0.73014   1.00
H2       -0.04458   0.78641    0.73361   1.00
C5       0.27877    0.99100    0.68429   1.00
C5       0.16296    0.63443    0.67659   1.00
H2       0.27790    0.99002    0.66742   1.00
H2       0.32768    0.99549    0.68957   1.00
H2       0.11679    0.63144    0.66950   1.00
H2       0.15511    0.63091    0.69340   1.00
H2       0.17071    0.51532    0.69560   1.00
H2       0.30551    1.11399    0.66335   1.00
H2       0.37630    1.12596    0.67923   1.00
C2       0.10605    0.92808    0.62888   1.00
C3       0.17383    0.94286    0.62588   1.00
O2       0.21780    0.99727    0.61393   1.00
C3       0.06722    0.88170    0.64442   1.00
H1       0.01464    0.86797    0.64677   1.00
C3a      0.20156    0.91281    0.63864   1.00
H1       0.25469    0.92764    0.63689   1.00
C3b      0.09562    0.85360    0.65749   1.00
C4       0.16332    0.86916    0.65469   1.00
O_3      0.22181    0.93273    0.69243   1.00
C5       0.22475    0.97409    0.59470   1.00
H2       0.24509    0.93836    0.59601   1.00
C5       0.27492    1.03700    0.58255   1.00
H2       0.17483    0.94752    0.58663   1.00
H2       0.32767    1.05199    0.58742   1.00
H2       0.26636    1.07962    0.58698   1.00
C5       0.26710    1.02538    0.55942   1.00
H2       0.27041    0.97942    0.55547   1.00
H2       0.30800    1.07007    0.55119   1.00
H2       0.21746    1.01885    0.55393   1.00
C5       0.27539    1.05313    0.69147   1.00
H2       0.28807    1.06069    0.70794   1.00
H2       0.22174    1.04186    0.68994   1.00
C5       0.32350    1.11756    0.67930   1.00
H2       0.32505    1.16297    0.68629   1.00
