data_IRMOF10_interpen_symm_ligand11cp_label_c_1.

_audit_creation_method             'generated by an auxiliary program of Tobunporous'

_symmetry_space_group_name_H-M     'P 1'
_symmetry_Int_Tables_number        1
_symmetry_cell_setting             triclinic

_cell_length_a                    22.6523
_cell_length_b                    22.6523
_cell_length_c                    65.9502
_cell_angle_alpha                 90.0000
_cell_angle_beta                  90.0000
_cell_angle_gamma                 120.0000

loop_
_atom_site_label
_atom_site_fract_x
_atom_site_fract_y
_atom_site_fract_z
_atom_site_occupancy
O1       0.00000    0.00000    0.57470   1.00
Zn1      0.00000    0.00000    0.54560   1.00
Zn1      0.94843    0.04287    0.58357   1.00
Zn1      0.09443    0.05157    0.58357   1.00
Zn1      0.95713    0.90557    0.58357   1.00
O2       0.93860    0.02610    0.53560   1.00
O2       0.08750    0.06140    0.53560   1.00
O2       0.97390    0.91250    0.53560   1.00
O2       0.91300    0.07160    0.56150   1.00
O2       0.00463    0.12027    0.60077   1.00
O2       0.87413    0.98077    0.60037   1.00
O2       0.15860    0.08700    0.56150   1.00
O2       0.10663    0.12587    0.60037   1.00
O2       0.11563    0.99537    0.60077   1.00
O2       0.92840    0.84140    0.56150   1.00
O2       0.87973    0.88437    0.60077   1.00
O2       0.01923    0.89337    0.60037   1.00
C1       0.91390    0.06020    0.54330   1.00
C1       0.14630    0.08610    0.54330   1.00
C1       0.93980    0.85370    0.54330   1.00
C1       0.06663    0.14397    0.60637   1.00
C1       0.85603    0.92267    0.60637   1.00
C1       0.07733    0.93337    0.60637   1.00
O1       0.00000    0.00000    0.92530   1.00
Zn1      0.00000    0.00000    0.95440   1.00
Zn1      0.04287    0.94843    0.91643   1.00
Zn1      0.05157    0.09443    0.91643   1.00
Zn1      0.90557    0.95713    0.91643   1.00
O2       0.02610    0.93860    0.96440   1.00
O2       0.06140    0.08750    0.96440   1.00
O2       0.91250    0.97390    0.96440   1.00
O2       0.07160    0.91300    0.93850   1.00
O2       0.12027    0.00463    0.89923   1.00
O2       0.98077    0.87413    0.89963   1.00
O2       0.08700    0.15860    0.93850   1.00
O2       0.12587    0.10663    0.89963   1.00
O2       0.99537    0.11563    0.89923   1.00
O2       0.84140    0.92840    0.93850   1.00
O2       0.88437    0.87973    0.89923   1.00
O2       0.89337    0.01923    0.89963   1.00
C1       0.06020    0.91390    0.95670   1.00
C1       0.08610    0.14630    0.95670   1.00
C1       0.85370    0.93980    0.95670   1.00
C1       0.14397    0.06663    0.89363   1.00
C1       0.92267    0.85603    0.89363   1.00
C1       0.93337    0.07733    0.89363   1.00
O1       0.00000    0.00000    0.42530   1.00
Zn1      0.00000    0.00000    0.45440   1.00
Zn1      0.05157    0.95713    0.41643   1.00
Zn1      0.90557    0.94843    0.41643   1.00
Zn1      0.04287    0.09443    0.41643   1.00
O2       0.06140    0.97390    0.46440   1.00
O2       0.91250    0.93860    0.46440   1.00
O2       0.02610    0.08750    0.46440   1.00
O2       0.08700    0.92840    0.43850   1.00
O2       0.99537    0.87973    0.39923   1.00
O2       0.12587    0.01923    0.39963   1.00
O2       0.84140    0.91300    0.43850   1.00
O2       0.89337    0.87413    0.39963   1.00
O2       0.88437    0.00463    0.39923   1.00
O2       0.07160    0.15860    0.43850   1.00
O2       0.12027    0.11563    0.39923   1.00
O2       0.98077    0.10663    0.39963   1.00
C1       0.08610    0.93980    0.45670   1.00
C1       0.85370    0.91390    0.45670   1.00
C1       0.06020    0.14630    0.45670   1.00
C1       0.93337    0.85603    0.39363   1.00
C1       0.14397    0.07733    0.39363   1.00
C1       0.92267    0.06663    0.39363   1.00
O1       0.00000    0.00000    0.07470   1.00
Zn1      0.00000    0.00000    0.04560   1.00
Zn1      0.95713    0.05157    0.08357   1.00
Zn1      0.94843    0.90557    0.08357   1.00
Zn1      0.09443    0.04287    0.08357   1.00
O2       0.97390    0.06140    0.03560   1.00
O2       0.93860    0.91250    0.03560   1.00
O2       0.08750    0.02610    0.03560   1.00
O2       0.92840    0.08700    0.06150   1.00
O2       0.87973    0.99537    0.10077   1.00
O2       0.01923    0.12587    0.10037   1.00
O2       0.91300    0.84140    0.06150   1.00
O2       0.87413    0.89337    0.10037   1.00
O2       0.00463    0.88437    0.10077   1.00
O2       0.15860    0.07160    0.06150   1.00
O2       0.11563    0.12027    0.10077   1.00
O2       0.10663    0.98077    0.10037   1.00
C1       0.93980    0.08610    0.04330   1.00
C1       0.91390    0.85370    0.04330   1.00
C1       0.14630    0.06020    0.04330   1.00
C1       0.85603    0.93337    0.10637   1.00
C1       0.07733    0.14397    0.10637   1.00
C1       0.06663    0.92267    0.10637   1.00
O1       0.66667    0.33333    0.90803   1.00
Zn1      0.66667    0.33333    0.87893   1.00
Zn1      0.61510    0.37620    0.91690   1.00
Zn1      0.76110    0.38490    0.91690   1.00
Zn1      0.62380    0.23890    0.91690   1.00
O2       0.60527    0.35943    0.86893   1.00
O2       0.75417    0.39473    0.86893   1.00
O2       0.64057    0.24583    0.86893   1.00
O2       0.57967    0.40493    0.89483   1.00
O2       0.67130    0.45360    0.93410   1.00
O2       0.54080    0.31410    0.93370   1.00
O2       0.82527    0.42033    0.89483   1.00
O2       0.77330    0.45920    0.93370   1.00
O2       0.78230    0.32870    0.93410   1.00
O2       0.59507    0.17473    0.89483   1.00
O2       0.54640    0.21770    0.93410   1.00
O2       0.68590    0.22670    0.93370   1.00
C1       0.58057    0.39353    0.87663   1.00
C1       0.81297    0.41943    0.87663   1.00
C1       0.60647    0.18703    0.87663   1.00
C1       0.73330    0.47730    0.93970   1.00
C1       0.52270    0.25600    0.93970   1.00
C1       0.74400    0.26670    0.93970   1.00
O1       0.66667    0.33333    0.25863   1.00
Zn1      0.66667    0.33333    0.28773   1.00
Zn1      0.70953    0.28177    0.24977   1.00
Zn1      0.71823    0.42777    0.24977   1.00
Zn1      0.57223    0.29047    0.24977   1.00
O2       0.69277    0.27193    0.29773   1.00
O2       0.72807    0.42083    0.29773   1.00
O2       0.57917    0.30723    0.29773   1.00
O2       0.73827    0.24633    0.27183   1.00
O2       0.78693    0.33797    0.23257   1.00
O2       0.64743    0.20747    0.23297   1.00
O2       0.75367    0.49193    0.27183   1.00
O2       0.79253    0.43997    0.23297   1.00
O2       0.66203    0.44897    0.23257   1.00
O2       0.50807    0.26173    0.27183   1.00
O2       0.55103    0.21307    0.23257   1.00
O2       0.56003    0.35257    0.23297   1.00
C1       0.72687    0.24723    0.29003   1.00
C1       0.75277    0.47963    0.29003   1.00
C1       0.52037    0.27313    0.29003   1.00
C1       0.81063    0.39997    0.22697   1.00
C1       0.58933    0.18937    0.22697   1.00
C1       0.60003    0.41067    0.22697   1.00
O1       0.66667    0.33333    0.75863   1.00
Zn1      0.66667    0.33333    0.78773   1.00
Zn1      0.71823    0.29047    0.74977   1.00
Zn1      0.57223    0.28177    0.74977   1.00
Zn1      0.70953    0.42777    0.74977   1.00
O2       0.72807    0.30723    0.79773   1.00
O2       0.57917    0.27193    0.79773   1.00
O2       0.69277    0.42083    0.79773   1.00
O2       0.75367    0.26173    0.77183   1.00
O2       0.66203    0.21307    0.73257   1.00
O2       0.79253    0.35257    0.73297   1.00
O2       0.50807    0.24633    0.77183   1.00
O2       0.56003    0.20747    0.73297   1.00
O2       0.55103    0.33797    0.73257   1.00
O2       0.73827    0.49193    0.77183   1.00
O2       0.78693    0.44897    0.73257   1.00
O2       0.64743    0.43997    0.73297   1.00
C1       0.75277    0.27313    0.79003   1.00
C1       0.52037    0.24723    0.79003   1.00
C1       0.72687    0.47963    0.79003   1.00
C1       0.60003    0.18937    0.72697   1.00
C1       0.81063    0.41067    0.72697   1.00
C1       0.58933    0.39997    0.72697   1.00
O1       0.66667    0.33333    0.40803   1.00
Zn1      0.66667    0.33333    0.37893   1.00
Zn1      0.62380    0.38490    0.41690   1.00
Zn1      0.61510    0.23890    0.41690   1.00
Zn1      0.76110    0.37620    0.41690   1.00
O2       0.64057    0.39473    0.36893   1.00
O2       0.60527    0.24583    0.36893   1.00
O2       0.75417    0.35943    0.36893   1.00
O2       0.59507    0.42033    0.39483   1.00
O2       0.54640    0.32870    0.43410   1.00
O2       0.68590    0.45920    0.43370   1.00
O2       0.57967    0.17473    0.39483   1.00
O2       0.54080    0.22670    0.43370   1.00
O2       0.67130    0.21770    0.43410   1.00
O2       0.82527    0.40493    0.39483   1.00
O2       0.78230    0.45360    0.43410   1.00
O2       0.77330    0.31410    0.43370   1.00
C1       0.60647    0.41943    0.37663   1.00
C1       0.58057    0.18703    0.37663   1.00
C1       0.81297    0.39353    0.37663   1.00
C1       0.52270    0.26670    0.43970   1.00
C1       0.74400    0.47730    0.43970   1.00
C1       0.73330    0.25600    0.43970   1.00
O1       0.33333    0.66667    0.24137   1.00
Zn1      0.33333    0.66667    0.21227   1.00
Zn1      0.28177    0.70953    0.25023   1.00
Zn1      0.42777    0.71823    0.25023   1.00
Zn1      0.29047    0.57223    0.25023   1.00
O2       0.27193    0.69277    0.20227   1.00
O2       0.42083    0.72807    0.20227   1.00
O2       0.30723    0.57917    0.20227   1.00
O2       0.24633    0.73827    0.22817   1.00
O2       0.33797    0.78693    0.26743   1.00
O2       0.20747    0.64743    0.26703   1.00
O2       0.49193    0.75367    0.22817   1.00
O2       0.43997    0.79253    0.26703   1.00
O2       0.44897    0.66203    0.26743   1.00
O2       0.26173    0.50807    0.22817   1.00
O2       0.21307    0.55103    0.26743   1.00
O2       0.35257    0.56003    0.26703   1.00
C1       0.24723    0.72687    0.20997   1.00
C1       0.47963    0.75277    0.20997   1.00
C1       0.27313    0.52037    0.20997   1.00
C1       0.39997    0.81063    0.27303   1.00
C1       0.18937    0.58933    0.27303   1.00
C1       0.41067    0.60003    0.27303   1.00
O1       0.33333    0.66667    0.59197   1.00
Zn1      0.33333    0.66667    0.62107   1.00
Zn1      0.37620    0.61510    0.58310   1.00
Zn1      0.38490    0.76110    0.58310   1.00
Zn1      0.23890    0.62380    0.58310   1.00
O2       0.35943    0.60527    0.63107   1.00
O2       0.39473    0.75417    0.63107   1.00
O2       0.24583    0.64057    0.63107   1.00
O2       0.40493    0.57967    0.60517   1.00
O2       0.45360    0.67130    0.56590   1.00
O2       0.31410    0.54080    0.56630   1.00
O2       0.42033    0.82527    0.60517   1.00
O2       0.45920    0.77330    0.56630   1.00
O2       0.32870    0.78230    0.56590   1.00
O2       0.17473    0.59507    0.60517   1.00
O2       0.21770    0.54640    0.56590   1.00
O2       0.22670    0.68590    0.56630   1.00
C1       0.39353    0.58057    0.62337   1.00
C1       0.41943    0.81297    0.62337   1.00
C1       0.18703    0.60647    0.62337   1.00
C1       0.47730    0.73330    0.56030   1.00
C1       0.25600    0.52270    0.56030   1.00
C1       0.26670    0.74400    0.56030   1.00
O1       0.33333    0.66667    0.09197   1.00
Zn1      0.33333    0.66667    0.12107   1.00
Zn1      0.38490    0.62380    0.08310   1.00
Zn1      0.23890    0.61510    0.08310   1.00
Zn1      0.37620    0.76110    0.08310   1.00
O2       0.39473    0.64057    0.13107   1.00
O2       0.24583    0.60527    0.13107   1.00
O2       0.35943    0.75417    0.13107   1.00
O2       0.42033    0.59507    0.10517   1.00
O2       0.32870    0.54640    0.06590   1.00
O2       0.45920    0.68590    0.06630   1.00
O2       0.17473    0.57967    0.10517   1.00
O2       0.22670    0.54080    0.06630   1.00
O2       0.21770    0.67130    0.06590   1.00
O2       0.40493    0.82527    0.10517   1.00
O2       0.45360    0.78230    0.06590   1.00
O2       0.31410    0.77330    0.06630   1.00
C1       0.41943    0.60647    0.12337   1.00
C1       0.18703    0.58057    0.12337   1.00
C1       0.39353    0.81297    0.12337   1.00
C1       0.26670    0.52270    0.06030   1.00
C1       0.47730    0.74400    0.06030   1.00
C1       0.25600    0.73330    0.06030   1.00
O1       0.33333    0.66667    0.74137   1.00
Zn1      0.33333    0.66667    0.71227   1.00
Zn1      0.29047    0.71823    0.75023   1.00
Zn1      0.28177    0.57223    0.75023   1.00
Zn1      0.42777    0.70953    0.75023   1.00
O2       0.30723    0.72807    0.70227   1.00
O2       0.27193    0.57917    0.70227   1.00
O2       0.42083    0.69277    0.70227   1.00
O2       0.26173    0.75367    0.72817   1.00
O2       0.21307    0.66203    0.76743   1.00
O2       0.35257    0.79253    0.76703   1.00
O2       0.24633    0.50807    0.72817   1.00
O2       0.20747    0.56003    0.76703   1.00
O2       0.33797    0.55103    0.76743   1.00
O2       0.49193    0.73827    0.72817   1.00
O2       0.44897    0.78693    0.76743   1.00
O2       0.43997    0.64743    0.76703   1.00
C1       0.27313    0.75277    0.70997   1.00
C1       0.24723    0.52037    0.70997   1.00
C1       0.47963    0.72687    0.70997   1.00
C1       0.18937    0.60003    0.77303   1.00
C1       0.41067    0.81063    0.77303   1.00
C1       0.39997    0.58933    0.77303   1.00
C5       0.91186    0.96255    0.49201   1.00
H2       0.88124    0.96057    0.50542   1.00
H2       0.87786    0.95132    0.47868   1.00
C5       0.97504    1.03473    0.49017   1.00
H2       0.96135    1.07043    0.48275   1.00
H2       1.01539    1.03266    0.48108   1.00
O_3      0.93869    0.67568    0.47094   1.00
C4       0.85702    0.68532    0.50147   1.00
C3c      0.85522    0.74523    0.49732   1.00
H1       0.83153    0.74899    0.48352   1.00
C3d      0.88726    0.68110    0.51968   1.00
C3       0.88458    0.80133    0.51066   1.00
O2       0.87355    0.85479    0.50683   1.00
C3       0.91769    0.73735    0.53280   1.00
H1       0.94241    0.73262    0.54623   1.00
C2       0.91698    0.79859    0.52873   1.00
C5       0.98174    0.65215    0.47837   1.00
H2       0.97514    0.60657    0.46993   1.00
H2       0.97190    0.63857    0.49478   1.00
C5       1.05492    0.70941    0.47576   1.00
H2       1.06102    0.75554    0.48371   1.00
H2       1.06436    0.72210    0.45931   1.00
C5       1.10527    0.68889    0.48416   1.00
H2       1.09914    0.64256    0.47638   1.00
H2       1.09745    0.67850    0.50073   1.00
H2       1.15852    0.73079    0.48171   1.00
C5       0.83602    0.57468    0.53363   1.00
C5       0.92784    0.90499    0.49515   1.00
H2       0.79013    0.55633    0.52385   1.00
H2       0.82664    0.59378    0.54819   1.00
H2       0.93068    0.88325    0.48023   1.00
H2       0.97844    0.92490    0.50277   1.00
H2       0.99597    1.05678    0.50543   1.00
H2       0.74559    0.42921    0.53043   1.00
H2       0.75384    0.46032    0.55628   1.00
C2       0.77550    0.51600    0.46045   1.00
C3       0.73270    0.52165    0.47495   1.00
O2       0.67006    0.46604    0.47956   1.00
C3       0.84429    0.56896    0.45925   1.00
H1       0.87790    0.56703    0.44797   1.00
C3a      0.75960    0.57840    0.48811   1.00
H1       0.72720    0.58004    0.49988   1.00
C3b      0.87142    0.62422    0.47278   1.00
C4       0.82908    0.62923    0.48739   1.00
O_3      0.89494    0.62535    0.52374   1.00
C5       0.61757    0.47164    0.46983   1.00
H2       0.61737    0.51881    0.47466   1.00
C5       0.55007    0.40898    0.47595   1.00
H2       0.62334    0.47264    0.45302   1.00
H2       0.53603    0.41780    0.49138   1.00
H2       0.55938    0.36526    0.47728   1.00
C5       0.49197    0.39240    0.46078   1.00
H2       0.48700    0.43832    0.45842   1.00
H2       0.44259    0.35027    0.46658   1.00
H2       0.50141    0.37497    0.44588   1.00
C5       0.84728    0.51510    0.53812   1.00
H2       0.88539    0.53028    0.55057   1.00
H2       0.87033    0.50575    0.52444   1.00
C5       0.78044    0.45003    0.54376   1.00
H2       0.79155    0.40992    0.54897   1.00
C5       0.27334    0.27265    0.57763   1.00
H2       0.22577    0.27134    0.57274   1.00
H2       0.31501    0.32598    0.57523   1.00
C5       0.26790    0.25338    0.60034   1.00
H2       0.27987    0.29807    0.61013   1.00
H2       0.30400    0.23497    0.60395   1.00
O_3      0.42796    0.15750    0.50936   1.00
C4       0.31384    0.17196    0.50116   1.00
C3c      0.30995    0.21046    0.51727   1.00
H1       0.35037    0.26251    0.51944   1.00
C3d      0.26016    0.10455    0.49843   1.00
C3       0.25474    0.18242    0.53094   1.00
O2       0.25030    0.22556    0.54477   1.00
C3       0.20576    0.07607    0.51224   1.00
H1       0.16699    0.02341    0.50995   1.00
C2       0.20139    0.11405    0.52874   1.00
C5       0.41677    0.09198    0.50447   1.00
H2       0.45633    0.09415    0.49394   1.00
H2       0.36579    0.06016    0.49727   1.00
C5       0.41957    0.05826    0.52408   1.00
H2       0.38136    0.05782    0.53482   1.00
H2       0.47088    0.09012    0.53104   1.00
C5       0.40544    -0.01446   0.52022   1.00
H2       0.44313    -0.01445   0.50940   1.00
H2       0.35330    -0.04695   0.51393   1.00
H2       0.40919    -0.03774   0.53466   1.00
C5       0.23769    0.07159    0.46531   1.00
C5       0.28191    0.22456    0.56317   1.00
H2       0.26811    0.12489    0.45970   1.00
H2       0.18343    0.05859    0.46690   1.00
H2       0.33713    0.24296    0.56057   1.00
H2       0.25879    0.17227    0.56987   1.00
H2       0.21493    0.21290    0.60437   1.00
H2       0.27655    0.09155    0.42305   1.00
H2       0.18465    0.04465    0.42665   1.00
C2       0.48398    0.25176    0.46047   1.00
C3       0.42890    0.26276    0.45661   1.00
O2       0.42067    0.28356    0.43767   1.00
C3       0.48280    0.21705    0.47845   1.00
H1       0.52500    0.20937    0.48211   1.00
C3a      0.37374    0.23764    0.47034   1.00
H1       0.33020    0.24306    0.46659   1.00
C3b      0.42688    0.19023    0.49174   1.00
C4       0.37169    0.20028    0.48772   1.00
O_3      0.26400    0.06288    0.48376   1.00
C5       0.44308    0.35397    0.43782   1.00
H2       0.41383    0.36624    0.44904   1.00
C5       0.43124    0.37269    0.41649   1.00
H2       0.49838    0.38439    0.44161   1.00
H2       0.37641    0.35723    0.41499   1.00
H2       0.44078    0.34092    0.40553   1.00
C5       0.47691    0.44913    0.41162   1.00
H2       0.47072    0.48014    0.42360   1.00
H2       0.46287    0.46178    0.39672   1.00
H2       0.53180    0.46355    0.41053   1.00
C5       0.24176    0.02399    0.44979   1.00
H2       0.20242    -0.02936   0.45361   1.00
H2       0.29236    0.02738    0.45136   1.00
C5       0.23224    0.04196    0.42796   1.00
H2       0.22839    0.00216    0.41731   1.00
C5       0.75842    0.04953    0.58425   1.00
H2       0.74903    -0.00264   0.58110   1.00
H2       0.70760    0.04574    0.58384   1.00
C5       0.79096    0.07255    0.60551   1.00
H2       0.75129    0.05100    0.61758   1.00
H2       0.81858    0.12919    0.60656   1.00
O_3      0.86703    0.28063    0.50416   1.00
C4       0.82787    0.14177    0.50118   1.00
C3c      0.79572    0.11205    0.51963   1.00
H1       0.74866    0.11043    0.52366   1.00
C3d      0.88864    0.14248    0.49608   1.00
C3       0.82398    0.08495    0.53325   1.00
O2       0.78553    0.04937    0.54978   1.00
C3       0.91759    0.11671    0.50978   1.00
H1       0.96550    0.12056    0.50553   1.00
C2       0.88614    0.08715    0.52860   1.00
C5       0.93168    0.32391    0.49553   1.00
H2       0.92997    0.35875    0.48389   1.00
H2       0.95267    0.29380    0.48825   1.00
C5       0.97911    0.36685    0.51251   1.00
H2       0.97933    0.33203    0.52441   1.00
H2       0.95800    0.39716    0.51954   1.00
C5       1.05149    0.41389    0.50452   1.00
H2       1.05158    0.44848    0.49253   1.00
H2       1.07352    0.38360    0.49813   1.00
H2       1.08505    0.44594    0.51706   1.00
C5       0.90073    0.13032    0.46225   1.00
C5       0.80246    0.09357    0.56663   1.00
H2       0.84619    0.11287    0.45908   1.00
H2       0.90630    0.08469    0.46494   1.00
H2       0.79075    0.13493    0.56327   1.00
H2       0.85778    0.11849    0.57067   1.00
H2       0.82723    0.05378    0.60877   1.00
H2       0.86184    0.13221    0.42063   1.00
H2       0.89813    0.07734    0.42446   1.00
C2       0.74858    0.23187    0.46022   1.00
C3       0.72548    0.16135    0.45914   1.00
O2       0.69120    0.12436    0.44218   1.00
C3       0.79544    0.27058    0.47567   1.00
H1       0.81275    0.32430    0.47724   1.00
C3a      0.75070    0.13176    0.47299   1.00
H1       0.73550    0.07855    0.47124   1.00
C3b      0.82208    0.24144    0.48901   1.00
C4       0.79987    0.17156    0.48772   1.00
O_3      0.92496    0.17569    0.47885   1.00
C5       0.62052    0.08627    0.44607   1.00
H2       0.60907    0.05006    0.45894   1.00
C5       0.58647    0.04602    0.42676   1.00
H2       0.59978    0.12045    0.44975   1.00
H2       0.59277    0.00033    0.42627   1.00
H2       0.61540    0.07851    0.41360   1.00
C5       0.51044    0.02484    0.42527   1.00
H2       0.48345    -0.00289   0.43926   1.00
H2       0.48613    -0.00906   0.41196   1.00
H2       0.50375    0.07014    0.42313   1.00
C5       0.94288    0.16858    0.44378   1.00
H2       0.99494    0.17561    0.44551   1.00
H2       0.94867    0.22042    0.44370   1.00
C5       0.90972    0.13120    0.42385   1.00
H2       0.94508    0.15664    0.41096   1.00
C5       0.96416    0.91735    0.00859   1.00
H2       0.96278    0.88620    -0.00460   1.00
H2       0.95347    0.88429    0.02213   1.00
C5       1.03579    0.98143    0.01024   1.00
H2       1.07210    0.96904    0.01789   1.00
H2       1.03290    1.02188    0.01903   1.00
O_3      0.67395    0.93950    0.02843   1.00
C4       0.68533    0.85701    -0.00147   1.00
C3c      0.74585    0.85666    0.00291   1.00
H1       0.75009    0.83413    0.01689   1.00
C3d      0.68049    0.88576    -0.01991   1.00
C3       0.80193    0.88603    -0.01044   1.00
O2       0.85613    0.87640    -0.00634   1.00
C3       0.73670    0.91620    -0.03304   1.00
H1       0.73145    0.93975    -0.04666   1.00
C2       0.79855    0.91695    -0.02875   1.00
C5       0.64935    0.98119    0.02061   1.00
H2       0.60345    0.97427    0.02893   1.00
H2       0.63585    0.97020    0.00423   1.00
C5       0.70572    1.05492    0.02290   1.00
H2       0.75219    1.06139    0.01507   1.00
H2       0.71833    1.06551    0.03932   1.00
C5       0.68402    1.10385    0.01406   1.00
H2       0.63736    1.09733    0.02172   1.00
H2       0.67370    1.09489    -0.00248   1.00
H2       0.72528    1.15753    0.01628   1.00
C5       0.57407    0.83208    -0.03387   1.00
C5       0.90573    0.93184    0.00513   1.00
H2       0.55643    0.78690    -0.02382   1.00
H2       0.59355    0.82230    -0.04829   1.00
H2       0.88371    0.93513    0.01995   1.00
H2       0.92484    0.98186    -0.00278   1.00
H2       1.05766    1.00166    -0.00510   1.00
H2       0.42897    0.73989    -0.03053   1.00
H2       0.46024    0.74711    -0.05633   1.00
C2       0.51593    0.77545    0.03952   1.00
C3       0.52249    0.73232    0.02535   1.00
O2       0.46758    0.66895    0.02100   1.00
C3       0.56804    0.84466    0.04042   1.00
H1       0.56542    0.87857    0.05145   1.00
C3a      0.57927    0.75927    0.01221   1.00
H1       0.58158    0.72652    0.00068   1.00
C3b      0.62332    0.87178    0.02690   1.00
C4       0.62923    0.82910    0.01261   1.00
O_3      0.62405    0.89200    -0.02422   1.00
C5       0.47425    0.61769    0.03112   1.00
H2       0.52189    0.61814    0.02647   1.00
C5       0.41233    0.54926    0.02527   1.00
H2       0.47513    0.62443    0.04789   1.00
H2       0.42152    0.53461    0.00997   1.00
H2       0.36800    0.55753    0.02372   1.00
C5       0.39671    0.49234    0.04079   1.00
H2       0.44317    0.48849    0.04335   1.00
H2       0.35515    0.44229    0.03520   1.00
H2       0.37891    0.50225    0.05556   1.00
C5       0.51369    0.84178    -0.03865   1.00
H2       0.52828    0.87905    -0.05132   1.00
H2       0.50378    0.86524    -0.02517   1.00
C5       0.44931    0.77399    -0.04405   1.00
H2       0.40860    0.78387    -0.04947   1.00
C5       0.27256    0.27341    -0.07765   1.00
H2       0.27129    0.22586    -0.07277   1.00
H2       0.32588    0.31510    -0.07527   1.00
C5       0.25324    0.26797    -0.10037   1.00
H2       0.29792    0.27995    -0.11016   1.00
H2       0.23480    0.30404    -0.10396   1.00
O_3      0.15741    0.42791    -0.00934   1.00
C4       0.17196    0.31384    -0.00116   1.00
C3c      0.21044    0.30997    -0.01728   1.00
H1       0.26248    0.35042    -0.01946   1.00
C3d      0.10457    0.26013    0.00158   1.00
C3       0.18241    0.25477    -0.03095   1.00
O2       0.22553    0.25035    -0.04479   1.00
C3       0.07608    0.20573    -0.01223   1.00
H1       0.02344    0.16694    -0.00993   1.00
C2       0.11404    0.20139    -0.02874   1.00
C5       0.09189    0.41669    -0.00444   1.00
H2       0.09405    0.45623    0.00610   1.00
H2       0.06010    0.36571    0.00277   1.00
C5       0.05812    0.41947    -0.02404   1.00
H2       0.05768    0.38127    -0.03478   1.00
H2       0.08994    0.47078    -0.03100   1.00
C5       -0.01461   0.40530    -0.02016   1.00
H2       -0.01460   0.44298    -0.00934   1.00
H2       -0.04706   0.35316    -0.01387   1.00
H2       -0.03792   0.40903    -0.03460   1.00
C5       0.07168    0.23765    0.03470   1.00
C5       0.22447    0.28195    -0.06318   1.00
H2       0.12499    0.26809    0.04031   1.00
H2       0.05870    0.18340    0.03311   1.00
H2       0.24286    0.33716    -0.06058   1.00
H2       0.17217    0.25881    -0.06988   1.00
H2       0.21278    0.21498    -0.10439   1.00
H2       0.09170    0.27651    0.07696   1.00
H2       0.04483    0.18461    0.07337   1.00
C2       0.25176    0.48398    0.03953   1.00
C3       0.26280    0.42893    0.04338   1.00
O2       0.28365    0.42071    0.06231   1.00
C3       0.21700    0.48278    0.02156   1.00
H1       0.20929    0.52496    0.01791   1.00
C3a      0.23768    0.37376    0.02965   1.00
H1       0.24313    0.33024    0.03340   1.00
C3b      0.19019    0.42686    0.00827   1.00
C4       0.20028    0.37169    0.01228   1.00
O_3      0.06291    0.26395    0.01626   1.00
C5       0.35407    0.44315    0.06215   1.00
H2       0.36634    0.41392    0.05093   1.00
C5       0.37284    0.43133    0.08348   1.00
H2       0.38446    0.49845    0.05836   1.00
H2       0.35742    0.37650    0.08498   1.00
H2       0.34108    0.44084    0.09444   1.00
C5       0.44928    0.47703    0.08833   1.00
H2       0.48029    0.47086    0.07635   1.00
H2       0.46198    0.46301    0.10323   1.00
H2       0.46368    0.53191    0.08943   1.00
C5       0.02409    0.24169    0.05024   1.00
H2       -0.02926   0.20233    0.04642   1.00
H2       0.02745    0.29228    0.04867   1.00
C5       0.04211    0.23219    0.07206   1.00
H2       0.00232    0.22831    0.08272   1.00
C5       0.04953    0.75842    -0.08425   1.00
H2       -0.00264   0.74903    -0.08110   1.00
H2       0.04574    0.70760    -0.08384   1.00
C5       0.07255    0.79096    -0.10551   1.00
H2       0.05099    0.75129    -0.11758   1.00
H2       0.12919    0.81858    -0.10656   1.00
O_3      0.28063    0.86703    -0.00416   1.00
C4       0.14177    0.82787    -0.00118   1.00
C3c      0.11205    0.79572    -0.01963   1.00
H1       0.11043    0.74866    -0.02366   1.00
C3d      0.14248    0.88864    0.00392   1.00
C3       0.08495    0.82398    -0.03325   1.00
O2       0.04937    0.78553    -0.04978   1.00
C3       0.11671    0.91759    -0.00978   1.00
H1       0.12056    0.96550    -0.00553   1.00
C2       0.08715    0.88614    -0.02860   1.00
C5       0.32391    0.93168    0.00447   1.00
H2       0.35875    0.92997    0.01611   1.00
H2       0.29380    0.95267    0.01175   1.00
C5       0.36685    0.97911    -0.01251   1.00
H2       0.33203    0.97933    -0.02441   1.00
H2       0.39716    0.95800    -0.01954   1.00
C5       0.41389    1.05149    -0.00452   1.00
H2       0.44848    1.05158    0.00747   1.00
H2       0.38360    1.07352    0.00187   1.00
H2       0.44594    1.08505    -0.01706   1.00
C5       0.13032    0.90073    0.03775   1.00
C5       0.09357    0.80246    -0.06663   1.00
H2       0.11287    0.84619    0.04092   1.00
H2       0.08469    0.90630    0.03506   1.00
H2       0.13493    0.79075    -0.06327   1.00
H2       0.11849    0.85778    -0.07067   1.00
H2       0.05378    0.82723    -0.10877   1.00
H2       0.13221    0.86184    0.07937   1.00
H2       0.07734    0.89813    0.07554   1.00
C2       0.23187    0.74858    0.03978   1.00
C3       0.16135    0.72548    0.04086   1.00
O2       0.12436    0.69120    0.05782   1.00
C3       0.27058    0.79544    0.02433   1.00
H1       0.32430    0.81275    0.02276   1.00
C3a      0.13176    0.75070    0.02701   1.00
H1       0.07855    0.73550    0.02876   1.00
C3b      0.24144    0.82208    0.01099   1.00
C4       0.17156    0.79987    0.01228   1.00
O_3      0.17569    0.92496    0.02115   1.00
C5       0.08627    0.62052    0.05393   1.00
H2       0.05006    0.60907    0.04106   1.00
C5       0.04602    0.58647    0.07324   1.00
H2       0.12045    0.59978    0.05025   1.00
H2       0.00033    0.59277    0.07373   1.00
H2       0.07851    0.61540    0.08640   1.00
C5       0.02484    0.51044    0.07473   1.00
H2       -0.00289   0.48345    0.06074   1.00
H2       -0.00906   0.48613    0.08804   1.00
H2       0.07014    0.50375    0.07687   1.00
C5       0.16858    0.94288    0.05622   1.00
H2       0.17561    0.99494    0.05449   1.00
H2       0.22042    0.94867    0.05630   1.00
C5       0.13120    0.90972    0.07615   1.00
H2       0.15664    0.94508    0.08904   1.00
C5       0.07838    0.29794    0.41316   1.00
H2       0.10993    0.27501    0.40882   1.00
H2       0.11071    0.35354    0.41034   1.00
C5       0.01362    0.26762    0.39976   1.00
H2       0.02500    0.29355    0.38475   1.00
H2       -0.02687   0.27363    0.40742   1.00
O_3      0.05992    0.36129    0.51560   1.00
C4       0.14300    0.31419    0.49871   1.00
C3c      0.14221    0.32348    0.47767   1.00
H1       0.16384    0.37443    0.47155   1.00
C3d      0.11542    0.24743    0.50634   1.00
C3       0.11284    0.26758    0.46426   1.00
O2       0.12137    0.28090    0.44377   1.00
C3       0.08497    0.19160    0.49306   1.00
H1       0.06232    0.14126    0.49968   1.00
C2       0.08307    0.20004    0.47177   1.00
C5       0.01930    0.32003    0.53175   1.00
H2       0.02649    0.35003    0.54587   1.00
H2       0.03119    0.27889    0.53527   1.00
C5       -0.05482   0.28780    0.52526   1.00
H2       -0.06158   0.25941    0.51084   1.00
H2       -0.06628   0.32932    0.52197   1.00
C5       -0.10261   0.23998    0.54174   1.00
H2       -0.09578   0.26790    0.55621   1.00
H2       -0.09279   0.19718    0.54453   1.00
H2       -0.15660   0.21808    0.53690   1.00
C5       0.17096    0.23923    0.53411   1.00
C5       0.06506    0.28435    0.43592   1.00
H2       0.21559    0.29103    0.53172   1.00
H2       0.18104    0.20123    0.52644   1.00
H2       0.06144    0.32677    0.44331   1.00
H2       0.01552    0.23631    0.43855   1.00
H2       -0.00606   0.21237    0.39659   1.00
H2       0.26449    0.30172    0.56752   1.00
H2       0.25807    0.22204    0.55936   1.00
C2       0.22459    0.48157    0.54043   1.00
C3       0.26794    0.46114    0.53132   1.00
O2       0.33187    0.48235    0.53923   1.00
C3       0.15509    0.44776    0.53467   1.00
H1       0.12096    0.46335    0.54097   1.00
C3a      0.24095    0.40694    0.51723   1.00
H1       0.27395    0.38936    0.51126   1.00
C3b      0.12796    0.39246    0.52115   1.00
C4       0.17089    0.37152    0.51234   1.00
O_3      0.11029    0.23524    0.52701   1.00
C5       0.38215    0.53587    0.52743   1.00
H2       0.38119    0.51947    0.51141   1.00
C5       0.45126    0.55560    0.53695   1.00
H2       0.37465    0.58092    0.52748   1.00
H2       0.46638    0.51802    0.53199   1.00
H2       0.44381    0.54970    0.55368   1.00
C5       0.50724    0.62874    0.53153   1.00
H2       0.51024    0.63528    0.51479   1.00
H2       0.55780    0.63916    0.53727   1.00
H2       0.49699    0.66756    0.53864   1.00
C5       0.16249    0.22426    0.55677   1.00
H2       0.12589    0.16889    0.55894   1.00
H2       0.13874    0.25238    0.56361   1.00
C5       0.23099    0.24513    0.56721   1.00
H2       0.22206    0.22707    0.58319   1.00
C5       0.73023    0.72321    0.42370   1.00
H2       0.73996    0.76835    0.41454   1.00
H2       0.67564    0.68485    0.42130   1.00
C5       0.77631    0.69541    0.41607   1.00
H2       0.75387    0.66285    0.40240   1.00
H2       0.78258    0.66475    0.42819   1.00
O_3      0.67002    0.72901    0.52701   1.00
C4       0.68560    0.82869    0.49863   1.00
C3c      0.68121    0.79978    0.47945   1.00
H1       0.63409    0.75549    0.47479   1.00
C3d      0.74717    0.88697    0.50429   1.00
C3       0.73742    0.82666    0.46615   1.00
O2       0.72686    0.80090    0.44675   1.00
C3       0.80362    0.91307    0.49124   1.00
H1       0.85048    0.95635    0.49653   1.00
C2       0.80029    0.88400    0.47188   1.00
C5       0.71359    0.75702    0.54392   1.00
H2       0.68506    0.74208    0.55854   1.00
H2       0.74298    0.81385    0.54311   1.00
C5       0.76309    0.73016    0.54372   1.00
H2       0.79023    0.74342    0.52887   1.00
H2       0.73324    0.67345    0.54473   1.00
C5       0.81412    0.76014    0.56128   1.00
H2       0.78734    0.74750    0.57615   1.00
H2       0.84558    0.81658    0.55990   1.00
H2       0.84891    0.73878    0.56115   1.00
C5       0.73321    0.96212    0.52389   1.00
C5       0.74214    0.74759    0.44576   1.00
H2       0.67793    0.93761    0.52027   1.00
H2       0.76214    1.00446    0.51290   1.00
H2       0.70770    0.70511    0.45607   1.00
H2       0.79581    0.76449    0.45039   1.00
H2       0.82763    0.73780    0.41142   1.00
H2       0.64949    0.99412    0.54950   1.00
H2       0.71738    1.06883    0.53699   1.00
C2       0.51902    0.74476    0.54064   1.00
C3       0.52382    0.79200    0.52584   1.00
O2       0.48617    0.82435    0.52775   1.00
C3       0.56830    0.72375    0.54052   1.00
H1       0.56505    0.68633    0.55131   1.00
C3a      0.57801    0.81825    0.51175   1.00
H1       0.58318    0.85727    0.50126   1.00
C3b      0.62335    0.75158    0.52691   1.00
C4       0.62865    0.79933    0.51240   1.00
O_3      0.75576    0.91424    0.52357   1.00
C5       0.42909    0.79410    0.51473   1.00
H2       0.44495    0.79733    0.49854   1.00
C5       0.39086    0.83337    0.51748   1.00
H2       0.39471    0.73945    0.51870   1.00
H2       0.41755    0.88142    0.50853   1.00
H2       0.39558    0.84862    0.53373   1.00
C5       0.31522    0.79164    0.51122   1.00
H2       0.31133    0.77231    0.49550   1.00
H2       0.29068    0.82368    0.51181   1.00
H2       0.28575    0.74779    0.52175   1.00
C5       0.74479    0.99159    0.54522   1.00
H2       0.80057    1.02590    0.54750   1.00
H2       0.72813    0.94889    0.55625   1.00
C5       0.70567    1.02995    0.54899   1.00
H2       0.72084    1.05665    0.56384   1.00
C5       0.27456    1.00281    0.42297   1.00
H2       0.22877    0.96740    0.41404   1.00
H2       0.31223    0.98572    0.42050   1.00
C5       0.30293    1.07645    0.41504   1.00
H2       0.33470    1.08546    0.40124   1.00
H2       0.33453    1.11377    0.42696   1.00
O_3      0.27292    0.94146    0.52647   1.00
C4       0.17130    0.85691    0.49863   1.00
C3c      0.19941    0.88022    0.47930   1.00
H1       0.24305    0.87642    0.47452   1.00
C3d      0.11383    0.86144    0.50446   1.00
C3       0.17255    0.90955    0.46600   1.00
O2       0.19737    0.92350    0.44648   1.00
C3       0.08778    0.89180    0.49139   1.00
H1       0.04517    0.89637    0.49680   1.00
C2       0.11605    0.91633    0.47188   1.00
C5       0.24624    0.95843    0.54342   1.00
H2       0.26157    0.94521    0.55803   1.00
H2       0.18940    0.93165    0.54285   1.00
C5       0.27408    1.03494    0.54291   1.00
H2       0.26041    1.04841    0.52807   1.00
H2       0.33081    1.06115    0.54368   1.00
C5       0.24556    1.05750    0.56050   1.00
H2       0.25862    1.04378    0.57537   1.00
H2       0.18912    1.03318    0.55935   1.00
H2       0.26764    1.11375    0.56014   1.00
C5       0.03885    0.77380    0.52453   1.00
C5       0.25129    0.99173    0.44513   1.00
H2       0.06250    0.74223    0.52093   1.00
H2       -0.00390   0.76043    0.51370   1.00
H2       0.29406    0.99966    0.45529   1.00
H2       0.23534    1.02928    0.44971   1.00
H2       0.26080    1.08591    0.41049   1.00
H2       0.00656    0.65895    0.55057   1.00
H2       -0.06828   0.65266    0.53830   1.00
C2       0.25533    0.77434    0.54064   1.00
C3       0.20706    0.73159    0.52609   1.00
O2       0.17396    0.66166    0.52830   1.00
C3       0.27728    0.84483    0.54024   1.00
H1       0.31548    0.87919    0.55083   1.00
C3a      0.18076    0.75947    0.51201   1.00
H1       0.14100    0.72547    0.50173   1.00
C3b      0.24943    0.87204    0.52664   1.00
C4       0.20067    0.82931    0.51240   1.00
O_3      0.08745    0.84400    0.52387   1.00
C5       0.20289    0.63350    0.51528   1.00
H2       0.19907    0.64548    0.49907   1.00
C5       0.16284    0.55615    0.51837   1.00
H2       0.25761    0.65324    0.51903   1.00
H2       0.11439    0.53495    0.50963   1.00
H2       0.14835    0.54658    0.53469   1.00
C5       0.20337    0.52100    0.51209   1.00
H2       0.22201    0.53548    0.49627   1.00
H2       0.17072    0.46452    0.51293   1.00
H2       0.24762    0.53530    0.52244   1.00
C5       0.01041    0.75730    0.54600   1.00
H2       -0.02316   0.77960    0.54831   1.00
H2       0.05373    0.78340    0.55682   1.00
C5       -0.02868   0.68001    0.55011   1.00
H2       -0.05461   0.66955    0.56507   1.00
C5       0.05499    0.13442    0.99855   1.00
H2       0.02399    0.07802    0.99966   1.00
H2       0.05791    0.14650    0.98212   1.00
C5       0.01907    0.16693    1.01022   1.00
H2       -0.02193   0.16664    1.00083   1.00
H2       0.05672    0.22048    1.01439   1.00
O_3      0.40817    0.28258    1.00219   1.00
C4       0.31418    0.14167    1.00129   1.00
C3c      0.25124    0.13545    0.99600   1.00
H1       0.24494    0.15244    0.98125   1.00
C3d      0.32102    0.11833    1.02047   1.00
C3       0.19598    0.10831    1.00965   1.00
O2       0.13372    0.09615    1.00255   1.00
C3       0.26651    0.09249    1.03424   1.00
H1       0.27491    0.07747    1.04904   1.00
C2       0.20274    0.08653    1.02923   1.00
C5       0.45511    0.30130    1.01835   1.00
H2       0.50902    0.32990    1.01302   1.00
H2       0.44761    0.25552    1.02690   1.00
C5       0.44291    0.34702    1.03253   1.00
H2       0.38852    0.31915    1.03741   1.00
H2       0.45116    0.39285    1.02389   1.00
C5       0.49041    0.36786    1.05099   1.00
H2       0.54481    0.39530    1.04622   1.00
H2       0.48057    0.32231    1.06002   1.00
H2       0.48179    0.40246    1.06095   1.00
C5       0.39062    0.07242    1.02070   1.00
C5       0.12566    0.15305    1.00658   1.00
H2       0.39009    0.06850    1.00388   1.00
H2       0.34933    0.02323    1.02699   1.00
H2       0.16590    0.19903    0.99856   1.00
H2       0.12969    0.16560    1.02311   1.00
H2       -0.00621   0.13747    1.02428   1.00
H2       0.49401    0.05181    1.00181   1.00
H2       0.44015    -0.01649   1.01918   1.00
C2       0.48637    0.23076    0.96134   1.00
C3       0.43793    0.16062    0.95988   1.00
O2       0.45331    0.11712    0.94950   1.00
C3       0.47464    0.27075    0.97550   1.00
H1       0.50983    0.32492    0.97661   1.00
C3a      0.38051    0.13196    0.97279   1.00
H1       0.34595    0.07750    0.97229   1.00
C3b      0.41865    0.24169    0.98875   1.00
C4       0.37109    0.17177    0.98751   1.00
O_3      0.38335    0.12801    1.02698   1.00
C5       0.42208    0.10197    0.93022   1.00
H2       0.36545    0.07722    0.93152   1.00
C5       0.44055    0.05286    0.91986   1.00
H2       0.44111    0.14906    0.92088   1.00
H2       0.40663    0.00066    0.92594   1.00
H2       0.49339    0.06763    0.92459   1.00
C5       0.43527    0.05329    0.89654   1.00
H2       0.38387    0.04377    0.89214   1.00
H2       0.44343    0.01300    0.88968   1.00
H2       0.47511    0.10296    0.89000   1.00
C5       0.45911    0.08466    1.02850   1.00
H2       0.45541    0.07683    1.04524   1.00
H2       0.49783    0.13913    1.02577   1.00
C5       0.48111    0.03785    1.01810   1.00
H2       0.52742    0.04308    1.02561   1.00
C5       0.70588    0.75258    1.06803   1.00
H2       0.74363    0.75616    1.07943   1.00
H2       0.66130    0.70035    1.06955   1.00
C5       0.68495    0.80655    1.07279   1.00
H2       0.64556    0.78819    1.08494   1.00
H2       0.66424    0.81769    1.05891   1.00
O_3      0.75006    0.68364    0.96806   1.00
C4       0.82859    0.68550    1.00141   1.00
C3c      0.79285    0.68606    1.01874   1.00
H1       0.74312    0.64283    1.02196   1.00
C3d      0.89373    0.74192    0.99766   1.00
C3       0.81995    0.74239    1.03200   1.00
O2       0.78591    0.73585    1.04990   1.00
C3       0.92030    0.79863    1.01062   1.00
H1       0.96938    0.84172    1.00673   1.00
C2       0.88451    0.80035    1.02809   1.00
C5       0.79041    0.72522    0.95192   1.00
H2       0.77922    0.69656    0.93735   1.00
H2       0.84585    0.74768    0.95527   1.00
C5       0.77442    0.78244    0.94932   1.00
H2       0.78377    0.80989    0.96404   1.00
H2       0.71910    0.75946    0.94579   1.00
C5       0.81808    0.83166    0.93247   1.00
H2       0.80935    0.80449    0.91775   1.00
H2       0.87324    0.85642    0.93631   1.00
H2       0.80461    0.87227    0.93049   1.00
C5       0.96810    0.71439    0.98305   1.00
C5       0.74016    0.76069    1.04740   1.00
H2       0.93526    0.65927    0.98657   1.00
H2       1.00565    0.73901    0.99561   1.00
H2       0.70125    0.73022    1.03564   1.00
H2       0.76640    0.81526    1.04247   1.00
H2       0.72926    0.85490    1.07853   1.00
H2       0.99507    0.61886    0.96176   1.00
H2       1.06739    0.68008    0.97671   1.00
C2       0.74565    0.51914    0.95932   1.00
C3       0.78180    0.51730    0.97653   1.00
O2       0.80548    0.47183    0.97746   1.00
C3       0.73491    0.57519    0.95699   1.00
H1       0.70593    0.57726    0.94426   1.00
C3a      0.80764    0.57160    0.99057   1.00
H1       0.83852    0.57132    1.00304   1.00
C3b      0.76254    0.63014    0.97063   1.00
C4       0.79936    0.62875    0.98756   1.00
O_3      0.92874    0.74612    0.98002   1.00
C5       0.76274    0.41603    0.98997   1.00
H2       0.76059    0.43305    1.00571   1.00
C5       0.79293    0.36880    0.99049   1.00
H2       0.70992    0.38777    0.98375   1.00
H2       0.83621    0.39005    1.00142   1.00
H2       0.81509    0.37086    0.97525   1.00
C5       0.74003    0.29473    0.99614   1.00
H2       0.71459    0.29417    1.01061   1.00
H2       0.76497    0.26337    0.99804   1.00
H2       0.70080    0.26978    0.98397   1.00
C5       1.00656    0.72136    0.96344   1.00
H2       1.04764    0.77552    0.96178   1.00
H2       0.97072    0.70992    0.95051   1.00
C5       1.03627    0.67331    0.96292   1.00
H2       1.06977    0.68478    0.94945   1.00
C5       1.00224    0.27425    1.07713   1.00
H2       0.96683    0.22837    1.08602   1.00
H2       0.98503    0.31182    1.07961   1.00
C5       1.07584    0.30269    1.08510   1.00
H2       1.08470    0.33436    1.09891   1.00
H2       1.11322    0.33442    1.07321   1.00
O_3      0.94152    0.27318    0.97360   1.00
C4       0.85691    0.17130    1.00137   1.00
C3c      0.88006    0.19930    1.02072   1.00
H1       0.87612    0.24285    1.02551   1.00
C3d      0.86161    0.11394    0.99552   1.00
C3       0.90939    0.17244    1.03402   1.00
O2       0.92316    0.19713    1.05356   1.00
C3       0.89198    0.08789    1.00858   1.00
H1       0.89667    0.04538    1.00316   1.00
C2       0.91633    0.11605    1.02812   1.00
C5       0.95868    0.24668    0.95665   1.00
H2       0.94551    0.26207    0.94204   1.00
H2       0.93199    0.18984    0.95719   1.00
C5       1.03521    0.27466    0.95720   1.00
H2       1.04863    0.26092    0.97204   1.00
H2       1.06133    0.33138    0.95647   1.00
C5       1.05797    0.24633    0.93961   1.00
H2       1.04431    0.25945    0.92474   1.00
H2       1.03374    0.18989    0.94072   1.00
H2       1.11423    0.26851    0.94000   1.00
C5       0.77417    0.03899    0.97539   1.00
C5       0.99134    0.25113    1.05495   1.00
H2       0.74249    0.06252    0.97898   1.00
H2       0.76081    -0.00382   0.98619   1.00
H2       0.99925    0.29394    1.04481   1.00
H2       1.02900    0.23531    1.05038   1.00
H2       1.08537    0.26060    1.08963   1.00
H2       0.65944    0.00666    0.94929   1.00
H2       0.65323    -0.06819   0.96152   1.00
C2       0.77435    0.25535    0.95936   1.00
C3       0.73156    0.20693    0.97387   1.00
O2       0.66164    0.17373    0.97162   1.00
C3       0.84487    0.27742    0.95979   1.00
H1       0.87925    0.31572    0.94924   1.00
C3a      0.75944    0.18063    0.98796   1.00
H1       0.72542    0.14077    0.99820   1.00
C3b      0.87207    0.24957    0.97340   1.00
C4       0.82931    0.20067    0.98760   1.00
O_3      0.84434    0.08769    0.97609   1.00
C5       0.63330    0.20248    0.98464   1.00
H2       0.64520    0.19858    1.00086   1.00
C5       0.55598    0.16233    0.98151   1.00
H2       0.65296    0.25721    0.98092   1.00
H2       0.53480    0.11382    0.99022   1.00
H2       0.54653    0.14794    0.96518   1.00
C5       0.52065    0.20269    0.98779   1.00
H2       0.53500    0.22124    1.00362   1.00
H2       0.46419    0.16997    0.98691   1.00
H2       0.53495    0.24700    0.97746   1.00
C5       0.75786    0.01069    0.95390   1.00
H2       0.78027    -0.02278   0.95158   1.00
H2       0.78397    0.05409    0.94310   1.00
C5       0.68060    -0.02850   0.94974   1.00
H2       0.67028    -0.05432   0.93476   1.00
C5       0.65059    1.05351    0.91337   1.00
H2       0.69899    1.09970    0.90898   1.00
H2       0.65986    1.01002    0.91165   1.00
C5       0.63354    1.06004    0.93570   1.00
H2       0.66284    1.04594    0.94627   1.00
H2       0.57804    1.02610    0.93852   1.00
O_3      0.39226    0.90964    0.84115   1.00
C4       0.52483    1.01947    0.83450   1.00
C3c      0.56329    1.02115    0.85142   1.00
H1       0.57182    0.97897    0.85424   1.00
C3d      0.51514    1.07540    0.83093   1.00
C3       0.59044    1.07640    0.86508   1.00
O2       0.63435    1.07834    0.87984   1.00
C3       0.54099    1.12989    0.84471   1.00
H1       0.53021    1.17050    0.84174   1.00
C2       0.57937    1.13206    0.86203   1.00
C5       0.34116    0.92422    0.83501   1.00
H2       0.30449    0.88565    0.82412   1.00
H2       0.36393    0.97545    0.82771   1.00
C5       0.30221    0.92356    0.85385   1.00
H2       0.33914    0.96073    0.86497   1.00
H2       0.27918    0.87200    0.86091   1.00
C5       0.24697    0.94140    0.84862   1.00
H2       0.21018    0.90477    0.83742   1.00
H2       0.27013    0.99380    0.84223   1.00
H2       0.21807    0.93919    0.86251   1.00
C5       0.51206    1.09886    0.79743   1.00
C5       0.59773    1.04785    0.89783   1.00
H2       0.53342    1.06626    0.79262   1.00
H2       0.55488    1.15225    0.79933   1.00
H2       0.55933    0.99321    0.89503   1.00
H2       0.56967    1.07332    0.90368   1.00
H2       0.64802    1.11378    0.93944   1.00
H2       0.49886    1.05973    0.75525   1.00
H2       0.54714    1.15159    0.75885   1.00
C2       0.43454    0.84957    0.79372   1.00
C3       0.50240    0.90235    0.79069   1.00
O2       0.53429    0.90902    0.77231   1.00
C3       0.39901    0.85282    0.81095   1.00
H1       0.34762    0.81235    0.81399   1.00
C3a      0.53231    0.95740    0.80446   1.00
H1       0.58290    0.99930    0.80130   1.00
C3b      0.42813    0.90870    0.82425   1.00
C4       0.49522    0.96164    0.82105   1.00
O_3      0.47340    1.07396    0.81538   1.00
C5       0.57944    0.88325    0.77369   1.00
H2       0.61939    0.91100    0.78547   1.00
C5       0.61343    0.89352    0.75292   1.00
H2       0.55147    0.82789    0.77752   1.00
H2       0.65501    0.94759    0.75169   1.00
H2       0.57479    0.88601    0.74122   1.00
C5       0.64141    0.84481    0.74917   1.00
H2       0.67571    0.84912    0.76184   1.00
H2       0.67067    0.85760    0.73471   1.00
H2       0.59923    0.79073    0.74779   1.00
C5       0.46448    1.09753    0.78090   1.00
H2       0.45255    1.13878    0.78402   1.00
H2       0.41556    1.04825    0.78199   1.00
C5       0.49546    1.10559    0.75959   1.00
H2       0.46273    1.11154    0.74817   1.00
C5       -0.04225   0.57496    0.91758   1.00
H2       -0.08503   0.58434    0.91441   1.00
H2       0.00478    0.62579    0.91716   1.00
C5       -0.05176   0.54244    0.93884   1.00
H2       -0.03365   0.58213    0.95090   1.00
H2       -0.02272   0.51485    0.93989   1.00
O_3      0.08029    0.46634    0.83750   1.00
C4       -0.01943   0.50546    0.83451   1.00
C3c      -0.01701   0.53762    0.85296   1.00
H1       0.02843    0.58469    0.85699   1.00
C3d      -0.07948   0.44468    0.82942   1.00
C3       -0.07237   0.50936    0.86657   1.00
O2       -0.06952   0.54782    0.88310   1.00
C3       -0.13420   0.41573    0.84311   1.00
H1       -0.17825   0.36781    0.83887   1.00
C2       -0.13232   0.44719    0.86193   1.00
C5       0.05894    0.40168    0.82887   1.00
H2       0.09549    0.40339    0.81724   1.00
H2       0.00784    0.38067    0.82159   1.00
C5       0.05446    0.35427    0.84586   1.00
H2       0.01941    0.35405    0.85776   1.00
H2       0.10588    0.37540    0.85289   1.00
C5       0.02914    0.28189    0.83788   1.00
H2       0.06364    0.28179    0.82589   1.00
H2       -0.02317   0.25985    0.83149   1.00
H2       0.02764    0.24834    0.85042   1.00
C5       -0.10373   0.43256    0.79558   1.00
C5       -0.04224   0.53092    0.89996   1.00
H2       -0.06665   0.48709    0.79241   1.00
H2       -0.15494   0.42697    0.79827   1.00
H2       0.01085    0.54264    0.89660   1.00
H2       -0.07262   0.47560    0.90400   1.00
H2       -0.10679   0.50617    0.94210   1.00
H2       -0.06296   0.47141    0.75396   1.00
H2       -0.15413   0.43510    0.75779   1.00
C2       0.14996    0.58475    0.79355   1.00
C3       0.10253    0.60784    0.79246   1.00
O2       0.09981    0.64209    0.77550   1.00
C3       0.14181    0.53790    0.80901   1.00
H1       0.17824    0.52061    0.81058   1.00
C3a      0.04772    0.58262    0.80632   1.00
H1       0.00969    0.59780    0.80456   1.00
C3b      0.08604    0.51127    0.82235   1.00
C4       0.03835    0.53346    0.82105   1.00
O_3      -0.08257   0.40835    0.81218   1.00
C5       0.13238    0.71277    0.77938   1.00
H2       0.10761    0.72423    0.79225   1.00
C5       0.12617    0.74680    0.76007   1.00
H2       0.18731    0.73353    0.78307   1.00
H2       0.07417    0.74049    0.75958   1.00
H2       0.12975    0.71787    0.74691   1.00
C5       0.18101    0.82284    0.75857   1.00
H2       0.18026    0.84984    0.77256   1.00
H2       0.17141    0.84713    0.74526   1.00
H2       0.23301    0.82954    0.75644   1.00
C5       -0.10761   0.39039    0.77712   1.00
H2       -0.15263   0.33833    0.77885   1.00
H2       -0.06156   0.38461    0.77704   1.00
C5       -0.11184   0.42353    0.75719   1.00
H2       -0.12175   0.38816    0.74429   1.00
C5       0.42456    0.38211    0.91750   1.00
H2       0.41532    0.33001    0.91432   1.00
H2       0.37368    0.37819    0.91706   1.00
C5       0.45690    0.40501    0.93879   1.00
H2       0.41713    0.38328    0.95082   1.00
H2       0.48439    0.46164    0.93987   1.00
O_3      0.53336    0.61385    0.83758   1.00
C4       0.49454    0.47510    0.83451   1.00
C3c      0.46228    0.44518    0.85293   1.00
H1       0.41512    0.44341    0.85694   1.00
C3d      0.55543    0.47602    0.82944   1.00
C3       0.49054    0.41808    0.86655   1.00
O2       0.45199    0.38231    0.88304   1.00
C3       0.58438    0.45025    0.84314   1.00
H1       0.63238    0.45425    0.83892   1.00
C2       0.55281    0.42048    0.86193   1.00
C5       0.59805    0.65732    0.82900   1.00
H2       0.59634    0.69220    0.81738   1.00
H2       0.61921    0.62737    0.82171   1.00
C5       0.64529    0.70019    0.84602   1.00
H2       0.64550    0.66532    0.85790   1.00
H2       0.62401    0.73034    0.85306   1.00
C5       0.71771    0.74743    0.83809   1.00
H2       0.71780    0.78207    0.82612   1.00
H2       0.73989    0.71729    0.83170   1.00
H2       0.75112    0.77942    0.85067   1.00
C5       0.56785    0.46418    0.79561   1.00
C5       0.46868    0.42635    0.89993   1.00
H2       0.51332    0.44664    0.79240   1.00
H2       0.57354    0.41861    0.79828   1.00
H2       0.45687    0.46766    0.89658   1.00
H2       0.52397    0.45136    0.90401   1.00
H2       0.49324    0.38634    0.94206   1.00
H2       0.52926    0.46631    0.75397   1.00
H2       0.56571    0.41158    0.75779   1.00
C2       0.41524    0.56521    0.79355   1.00
C3       0.39231    0.49473    0.79243   1.00
O2       0.35823    0.45784    0.77544   1.00
C3       0.46194    0.60386    0.80905   1.00
H1       0.47912    0.65755    0.81065   1.00
C3a      0.41753    0.46513    0.80628   1.00
H1       0.40247    0.41196    0.80449   1.00
C3b      0.48858    0.57472    0.82239   1.00
C4       0.46654    0.50488    0.82105   1.00
O_3      0.59185    0.50942    0.81224   1.00
C5       0.28753    0.41958    0.77927   1.00
H2       0.27605    0.38328    0.79211   1.00
C5       0.25370    0.37945    0.75992   1.00
H2       0.26664    0.45363    0.78296   1.00
H2       0.26013    0.33384    0.75942   1.00
H2       0.28269    0.41209    0.74679   1.00
C5       0.17763    0.35811    0.75838   1.00
H2       0.15056    0.33022    0.77235   1.00
H2       0.15349    0.32429    0.74504   1.00
H2       0.17083    0.40335    0.75627   1.00
C5       0.61011    0.50266    0.77718   1.00
H2       0.66221    0.50980    0.77894   1.00
H2       0.61578    0.55444    0.77713   1.00
C5       0.57717    0.46540    0.75722   1.00
H2       0.61262    0.49101    0.74435   1.00
C5       0.63510    0.39667    0.34396   1.00
H2       0.65553    0.36379    0.33870   1.00
H2       0.63316    0.39288    0.36077   1.00
C5       0.68369    0.47114    0.33724   1.00
H2       0.72771    0.49698    0.34782   1.00
H2       0.65580    0.49999    0.33689   1.00
O_3      0.28349    0.26176    0.34092   1.00
C4       0.35232    0.19025    0.33198   1.00
C3c      0.41944    0.23168    0.33889   1.00
H1       0.42900    0.24224    0.35492   1.00
C3d      0.34107    0.17632    0.31107   1.00
C3       0.47494    0.26084    0.32534   1.00
O2       0.53966    0.29383    0.33341   1.00
C3       0.39608    0.20633    0.29749   1.00
H1       0.38468    0.19614    0.28152   1.00
C2       0.46419    0.24896    0.30420   1.00
C5       0.23812    0.25629    0.32538   1.00
H2       0.18530    0.23697    0.33114   1.00
H2       0.23607    0.22142    0.31309   1.00
C5       0.26412    0.32710    0.31660   1.00
H2       0.31759    0.34720    0.31136   1.00
H2       0.26535    0.36131    0.32895   1.00
C5       0.21889    0.32538    0.29903   1.00
H2       0.16531    0.30491    0.30412   1.00
H2       0.21951    0.29312    0.28639   1.00
H2       0.23781    0.37779    0.29311   1.00
C5       0.25341    0.06978    0.30377   1.00
C5       0.56280    0.36429    0.33529   1.00
H2       0.25132    0.05160    0.31956   1.00
H2       0.28743    0.05758    0.29463   1.00
H2       0.52897    0.37247    0.34582   1.00
H2       0.56312    0.38844    0.32045   1.00
H2       0.70572    0.47315    0.32191   1.00
H2       0.13285    -0.05464   0.31593   1.00
H2       0.17715    -0.06704   0.29482   1.00
C2       0.18076    0.10643    0.37217   1.00
C3       0.21674    0.07135    0.36875   1.00
O2       0.18817    0.00350    0.37397   1.00
C3       0.20484    0.17076    0.36285   1.00
H1       0.17949    0.19970    0.36559   1.00
C3a      0.27417    0.10006    0.35584   1.00
H1       0.29881    0.07081    0.35246   1.00
C3b      0.26064    0.19815    0.34952   1.00
C4       0.29572    0.16274    0.34588   1.00
O_3      0.27560    0.14014    0.30332   1.00
C5       0.21683    -0.00305   0.39224   1.00
H2       0.27315    0.01915    0.39082   1.00
C5       0.18351    -0.07939   0.39678   1.00
H2       0.20644    0.02289    0.40497   1.00
H2       0.20866    -0.10112   0.38728   1.00
H2       0.12952    -0.10381   0.39160   1.00
C5       0.18703    -0.09459   0.41941   1.00
H2       0.24075    -0.06552   0.42472   1.00
H2       0.16754    -0.14997   0.42184   1.00
H2       0.15470    -0.08088   0.42890   1.00
C5       0.18193    0.03226    0.29479   1.00
H2       0.18580    0.04146    0.27812   1.00
H2       0.15238    0.05526    0.30111   1.00
C5       0.14528    -0.04463   0.29946   1.00
H2       0.09644    -0.07130   0.29095   1.00
C5       0.59615    0.38154    0.33730   1.00
H2       0.57416    0.38657    0.32279   1.00
H2       0.57172    0.39608    0.34941   1.00
C5       0.57890    0.30672    0.34009   1.00
H2       0.52625    0.27480    0.34611   1.00
H2       0.61565    0.30434    0.35079   1.00
O_3      0.91453    0.64855    0.36568   1.00
C4       0.83848    0.64805    0.33184   1.00
C3c      0.77267    0.59201    0.33456   1.00
H1       0.74200    0.59132    0.34722   1.00
C3d      0.87722    0.64838    0.31508   1.00
C3       0.74578    0.53580    0.32126   1.00
O2       0.67822    0.48683    0.32343   1.00
C3       0.85111    0.59192    0.30203   1.00
H1       0.88363    0.59341    0.28980   1.00
C2       0.78495    0.53450    0.30469   1.00
C5       0.98182    0.66578    0.36057   1.00
H2       1.02056    0.70949    0.36969   1.00
H2       0.99237    0.67937    0.34418   1.00
C5       0.98926    0.60389    0.36486   1.00
H2       0.94930    0.55972    0.35618   1.00
H2       0.97925    0.59118    0.38129   1.00
C5       1.06054    0.61746    0.35901   1.00
H2       1.10072    0.66181    0.36751   1.00
H2       1.06968    0.62783    0.34247   1.00
H2       1.06552    0.57221    0.36267   1.00
C5       0.94553    0.75386    0.30152   1.00
C5       0.67239    0.43382    0.33611   1.00
H2       0.91865    0.77634    0.30978   1.00
H2       0.92167    0.73671    0.28625   1.00
H2       0.69280    0.45418    0.35152   1.00
H2       0.70131    0.40938    0.33015   1.00
H2       0.58046    0.28343    0.32529   1.00
H2       1.01243    0.90066    0.30427   1.00
H2       0.99622    0.87010    0.27824   1.00
C2       0.92597    0.81690    0.37304   1.00
C3       0.88499    0.81610    0.35678   1.00
O2       0.88633    0.87523    0.35091   1.00
C3       0.93428    0.75952    0.37584   1.00
H1       0.96388    0.75779    0.38845   1.00
C3a      0.85507    0.75956    0.34354   1.00
H1       0.82707    0.76142    0.33051   1.00
C3b      0.90627    0.70435    0.36228   1.00
C4       0.86642    0.70409    0.34595   1.00
O_3      0.94413    0.69986    0.31260   1.00
C5       0.82823    0.87595    0.35831   1.00
H2       0.78027    0.83155    0.35246   1.00
C5       0.83292    0.94222    0.35090   1.00
H2       0.82693    0.87464    0.37521   1.00
H2       0.81577    0.93525    0.33481   1.00
H2       0.88783    0.98227    0.35093   1.00
C5       0.79098    0.96449    0.36398   1.00
H2       0.73748    0.92192    0.36509   1.00
H2       0.79099    1.00948    0.35715   1.00
H2       0.81306    0.98007    0.37954   1.00
C5       1.01994    0.80854    0.29884   1.00
H2       1.04378    0.78985    0.28768   1.00
H2       1.04665    0.81499    0.31357   1.00
C5       1.02761    0.87702    0.29197   1.00
H2       1.08173    0.91341    0.28815   1.00
C5       0.77458    0.39719    0.33885   1.00
H2       0.80299    0.42160    0.32472   1.00
H2       0.81182    0.42113    0.35142   1.00
C5       0.71490    0.41148    0.34133   1.00
H2       0.73317    0.46308    0.34788   1.00
H2       0.67520    0.37262    0.35148   1.00
O_3      0.73159    0.07991    0.36456   1.00
C4       0.80961    0.16156    0.33185   1.00
C3c      0.81658    0.22604    0.33511   1.00
H1       0.84436    0.25566    0.34820   1.00
C3d      0.77405    0.12421    0.31454   1.00
C3       0.78725    0.25287    0.32179   1.00
O2       0.80321    0.31948    0.32458   1.00
C3       0.74367    0.15022    0.30147   1.00
H1       0.71485    0.11869    0.28879   1.00
C2       0.74960    0.21501    0.30466   1.00
C5       0.68390    0.01270    0.35860   1.00
H2       0.68941    -0.02618   0.36747   1.00
H2       0.68941    0.00453    0.34217   1.00
C5       0.61305    0.00215    0.36231   1.00
H2       0.60820    0.04219    0.35390   1.00
H2       0.60789    0.00979    0.37878   1.00
C5       0.55782    -0.06918   0.35554   1.00
H2       0.56265    -0.10941   0.36378   1.00
H2       0.56144    -0.07601   0.33896   1.00
H2       0.50641    -0.07647   0.35879   1.00
C5       0.81631    0.06048    0.30077   1.00
C5       0.75337    0.32175    0.33694   1.00
H2       0.86453    0.08771    0.30959   1.00
H2       0.82405    0.08601    0.28575   1.00
H2       0.75227    0.29984    0.35219   1.00
H2       0.70089    0.29209    0.33039   1.00
H2       0.69144    0.41082    0.32635   1.00
H2       0.90008    -0.00222   0.30364   1.00
H2       0.88795    0.01633    0.27764   1.00
C2       0.89101    0.07395    0.37298   1.00
C3       0.93227    0.11768    0.35733   1.00
O2       0.99193    0.11937    0.35188   1.00
C3       0.82407    0.06288    0.37524   1.00
H1       0.79181    0.03110    0.38739   1.00
C3a      0.90557    0.14758    0.34412   1.00
H1       0.93644    0.17779    0.33152   1.00
C3b      0.79693    0.09094    0.36169   1.00
C4       0.83765    0.13355    0.34595   1.00
O_3      0.76133    0.05841    0.31147   1.00
C5       1.04861    0.17764    0.36012   1.00
H2       1.05103    0.22547    0.35465   1.00
C5       1.11245    0.17639    0.35314   1.00
H2       1.04650    0.17680    0.37702   1.00
H2       1.12408    0.19559    0.33726   1.00
H2       1.09950    0.12204    0.35266   1.00
C5       1.17459    0.21834    0.36698   1.00
H2       1.18344    0.27102    0.36856   1.00
H2       1.22124    0.22095    0.36049   1.00
H2       1.16697    0.19453    0.38232   1.00
C5       0.79953    -0.01281   0.29742   1.00
H2       0.75852    -0.03643   0.28579   1.00
H2       0.77818    -0.04159   0.31180   1.00
C5       0.86263    -0.01708   0.29096   1.00
H2       0.84720    -0.07028   0.28662   1.00
C5       0.83527    0.63443    0.74505   1.00
H2       0.85405    0.59761    0.74581   1.00
H2       0.88147    0.68566    0.74377   1.00
C5       0.78944    0.61913    0.72612   1.00
H2       0.82091    0.64171    0.71226   1.00
H2       0.75499    0.64052    0.72816   1.00
O_3      0.75017    0.73038    0.83583   1.00
C4       0.80944    0.64732    0.83211   1.00
C3c      0.83159    0.65410    0.81191   1.00
H1       0.87136    0.70302    0.80648   1.00
C3d      0.75825    0.58290    0.83897   1.00
C3       0.80240    0.59856    0.79837   1.00
O2       0.83230    0.60692    0.77962   1.00
C3       0.72818    0.52782    0.82542   1.00
H1       0.68743    0.48001    0.83117   1.00
C2       0.74946    0.53397    0.80488   1.00
C5       0.69079    0.70039    0.84794   1.00
H2       0.69383    0.73427    0.86065   1.00
H2       0.68142    0.65103    0.85452   1.00
C5       0.63108    0.68728    0.83443   1.00
H2       0.62922    0.65501    0.82142   1.00
H2       0.64068    0.73696    0.82810   1.00
C5       0.56381    0.65234    0.84629   1.00
H2       0.56549    0.68408    0.85939   1.00
H2       0.55300    0.60167    0.85202   1.00
H2       0.52097    0.64455    0.83628   1.00
C5       0.77024    0.56068    0.87199   1.00
C5       0.79968    0.62775    0.76536   1.00
H2       0.82366    0.60372    0.87276   1.00
H2       0.77100    0.51337    0.86773   1.00
H2       0.80549    0.67784    0.76993   1.00
H2       0.74381    0.59057    0.76405   1.00
H2       0.75813    0.56304    0.72328   1.00
H2       0.83020    0.60633    0.91164   1.00
H2       0.80437    0.51760    0.90683   1.00
C2       0.89075    0.81597    0.87337   1.00
C3       0.92345    0.77722    0.87096   1.00
O2       0.97044    0.78156    0.88508   1.00
C3       0.83317    0.79972    0.86118   1.00
H1       0.80806    0.82952    0.86228   1.00
C3a      0.89723    0.72269    0.85700   1.00
H1       0.92049    0.69109    0.85617   1.00
C3b      0.80593    0.74411    0.84777   1.00
C4       0.83786    0.70498    0.84562   1.00
O_3      0.73107    0.57472    0.85825   1.00
C5       1.03727    0.82295    0.87765   1.00
H2       1.04545    0.80192    0.86327   1.00
C5       1.08605    0.82423    0.89394   1.00
H2       1.04797    0.87590    0.87475   1.00
H2       1.08813    0.77625    0.89281   1.00
H2       1.06307    0.82313    0.90898   1.00
C5       1.15822    0.88691    0.89228   1.00
H2       1.17819    0.89018    0.87667   1.00
H2       1.19358    0.88314    0.90324   1.00
H2       1.15816    0.93510    0.89594   1.00
C5       0.73779    0.55085    0.89285   1.00
H2       0.68915    0.50114    0.89300   1.00
H2       0.72426    0.59140    0.89513   1.00
C5       0.78568    0.55379    0.90989   1.00
H2       0.75794    0.53940    0.92459   1.00
C5       0.58251    0.43472    0.82399   1.00
H2       0.62144    0.41896    0.82576   1.00
H2       0.57647    0.45186    0.83925   1.00
C5       0.60824    0.49413    0.80860   1.00
H2       0.64389    0.54358    0.81601   1.00
H2       0.56434    0.49712    0.80218   1.00
O_3      0.24099    0.18033    0.82479   1.00
C4       0.35262    0.16095    0.83209   1.00
C3c      0.40908    0.22640    0.83496   1.00
H1       0.41027    0.25663    0.84781   1.00
C3d      0.35252    0.12201    0.81541   1.00
C3       0.46418    0.25423    0.82125   1.00
O2       0.52114    0.31493    0.82638   1.00
C3       0.40670    0.15008    0.80152   1.00
H1       0.40325    0.11924    0.78857   1.00
C2       0.46385    0.21647    0.80408   1.00
C5       0.19674    0.13624    0.80968   1.00
H2       0.14303    0.10609    0.81510   1.00
H2       0.21323    0.09986    0.80442   1.00
C5       0.19901    0.17999    0.79189   1.00
H2       0.25297    0.21155    0.78684   1.00
H2       0.18185    0.21566    0.79726   1.00
C5       0.15398    0.13573    0.77440   1.00
H2       0.10011    0.10373    0.77938   1.00
H2       0.17251    0.10177    0.76856   1.00
H2       0.15511    0.16865    0.76172   1.00
C5       0.30053    0.00776    0.82165   1.00
C5       0.51686    0.36997    0.81785   1.00
H2       0.30079    0.01511    0.83834   1.00
H2       0.34738    0.00611    0.81738   1.00
H2       0.47149    0.37103    0.82400   1.00
H2       0.51174    0.36643    0.80095   1.00
H2       0.63740    0.48753    0.79598   1.00
H2       0.21244    -0.10955   0.84614   1.00
H2       0.27494    -0.12077   0.83193   1.00
C2       0.18015    0.07656    0.87194   1.00
C3       0.23712    0.06930    0.87648   1.00
O2       0.23182    0.02174    0.89054   1.00
C3       0.18318    0.11492    0.85463   1.00
H1       0.14114    0.12292    0.85103   1.00
C3a      0.29440    0.09859    0.86352   1.00
H1       0.33597    0.08929    0.86656   1.00
C3b      0.23930    0.14213    0.84142   1.00
C4       0.29545    0.13397    0.84578   1.00
O_3      0.29596    0.05946    0.81105   1.00
C5       0.26130    0.05391    0.90912   1.00
H2       0.31637    0.09270    0.90722   1.00
C5       0.25443    -0.00180   0.92370   1.00
H2       0.23432    0.07950    0.91555   1.00
H2       0.29537    -0.01381   0.92018   1.00
H2       0.20509    -0.04873   0.92029   1.00
C5       0.25758    0.01831    0.94619   1.00
H2       0.30459    0.06800    0.94895   1.00
H2       0.25820    -0.02087   0.95625   1.00
H2       0.21190    0.02208    0.95061   1.00
C5       0.23811    -0.06001   0.81611   1.00
H2       0.24398    -0.07284   0.80021   1.00
H2       0.19266    -0.05322   0.81640   1.00
C5       0.22765    -0.11750   0.83072   1.00
H2       0.18620    -0.16727   0.82502   1.00
C5       0.57572    0.17552    0.83039   1.00
H2       0.59719    0.23162    0.83059   1.00
H2       0.56278    0.15855    0.84639   1.00
C5       0.51080    0.14196    0.81704   1.00
H2       0.46586    0.13596    0.82567   1.00
H2       0.50040    0.09092    0.81179   1.00
O_3      0.80369    0.05402    0.82818   1.00
C4       0.83913    0.19167    0.83207   1.00
C3c      0.77811    0.19105    0.83640   1.00
H1       0.75140    0.16864    0.85040   1.00
C3d      0.87364    0.22198    0.81387   1.00
C3       0.75011    0.21823    0.82272   1.00
O2       0.69493    0.22333    0.82908   1.00
C3       0.84522    0.24792    0.80004   1.00
H1       0.87227    0.26848    0.78596   1.00
C2       0.78317    0.24704    0.80409   1.00
C5       0.83923    0.04336    0.81231   1.00
H2       0.86674    0.01693    0.81764   1.00
H2       0.87714    0.09265    0.80519   1.00
C5       0.78717    -0.00109   0.79646   1.00
H2       0.75835    0.02442    0.79156   1.00
H2       0.74997    -0.05038   0.80369   1.00
C5       0.82192    -0.01324   0.77826   1.00
H2       0.85118    -0.03827   0.78307   1.00
H2       0.85732    0.03575    0.77060   1.00
H2       0.78294    -0.04705   0.76704   1.00
C5       0.98954    0.27582    0.81641   1.00
C5       0.63378    0.16473    0.82304   1.00
H2       0.98806    0.27503    0.83327   1.00
H2       0.99492    0.32501    0.81104   1.00
H2       0.62987    0.11828    0.83022   1.00
H2       0.63065    0.15680    0.80624   1.00
H2       0.51629    0.17432    0.80357   1.00
H2       1.11136    0.30093    0.83775   1.00
H2       1.12481    0.37201    0.82176   1.00
C2       0.92279    0.10299    0.87196   1.00
C3       0.93843    0.17108    0.87487   1.00
O2       0.99275    0.21459    0.88692   1.00
C3       0.87663    0.06452    0.85633   1.00
H1       0.86225    0.01174    0.85405   1.00
C3a      0.90943    0.19944    0.86194   1.00
H1       0.92493    0.25275    0.86362   1.00
C3b      0.84959    0.09352    0.84310   1.00
C4       0.86600    0.16151    0.84580   1.00
O_3      0.93108    0.21930    0.80818   1.00
C5       0.96930    0.22204    0.90605   1.00
H2       0.93422    0.24309    0.90456   1.00
C5       1.03215    0.27166    0.91832   1.00
H2       0.94193    0.17219    0.91413   1.00
H2       1.04799    0.32457    0.91339   1.00
H2       1.07442    0.26235    0.91407   1.00
C5       1.01982    0.26407    0.94142   1.00
H2       0.97416    0.26815    0.94519   1.00
H2       1.06456    0.30463    0.94973   1.00
H2       1.01240    0.21417    0.94700   1.00
C5       1.05133    0.27141    0.80946   1.00
H2       1.05951    0.28400    0.79300   1.00
H2       1.03927    0.21753    0.81107   1.00
C5       1.11565    0.31894    0.82177   1.00
H2       1.16093    0.31975    0.81495   1.00
C5       -0.05026   0.35800    0.41458   1.00
H2       -0.06490   0.39291    0.42195   1.00
H2       0.00528    0.38054    0.41735   1.00
C5       -0.09032   0.28651    0.42441   1.00
H2       -0.06583   0.28465    0.43885   1.00
H2       -0.09229   0.24721    0.41385   1.00
O_3      0.00798    0.39025    0.31044   1.00
C4       -0.01901   0.47640    0.33467   1.00
C3c      -0.01198   0.46091    0.35484   1.00
H1       0.03722    0.47091    0.36028   1.00
C3d      -0.08334   0.46388    0.32797   1.00
C3       -0.06808   0.43155    0.36818   1.00
O2       -0.05565   0.42555    0.38829   1.00
C3       -0.13957   0.43344    0.34110   1.00
H1       -0.18839   0.42257    0.33507   1.00
C2       -0.13352   0.41676    0.36148   1.00
C5       -0.03568   0.36456    0.29346   1.00
H2       -0.00685   0.37550    0.27894   1.00
H2       -0.06988   0.38675    0.29251   1.00
C5       -0.07886   0.28774    0.29596   1.00
H2       -0.10619   0.27679    0.31075   1.00
H2       -0.04424   0.26608    0.29671   1.00
C5       -0.12972   0.25583    0.27843   1.00
H2       -0.10279   0.26698    0.26361   1.00
H2       -0.16583   0.27568    0.27811   1.00
H2       -0.15978   0.19953    0.28029   1.00
C5       -0.07861   0.54140    0.30498   1.00
C5       -0.06372   0.36037    0.39192   1.00
H2       -0.02408   0.57793    0.30834   1.00
H2       -0.11094   0.55419    0.31473   1.00
H2       -0.02624   0.35346    0.38272   1.00
H2       -0.11583   0.31809    0.38783   1.00
H2       -0.14345   0.27362    0.42838   1.00
H2       -0.00336   0.64997    0.27626   1.00
H2       -0.07600   0.65245    0.28702   1.00
C2       0.14782    0.55856    0.29275   1.00
C3       0.13742    0.60259    0.30552   1.00
O2       0.16891    0.67146    0.30136   1.00
C3       0.10415    0.48738    0.29491   1.00
H1       0.11186    0.45227    0.28573   1.00
C3a      0.08326    0.57503    0.31962   1.00
H1       0.07357    0.60951    0.32846   1.00
C3b      0.04901    0.46022    0.30849   1.00
C4       0.03809    0.50408    0.32095   1.00
O_3      -0.09411   0.47339    0.30787   1.00
C5       0.22556    0.70787    0.31426   1.00
H2       0.20994    0.69991    0.33054   1.00
C5       0.25681    0.78349    0.30896   1.00
H2       0.26427    0.69184    0.31187   1.00
H2       0.22596    0.80322    0.31638   1.00
H2       0.25101    0.78698    0.29229   1.00
C5       0.33236    0.82635    0.31521   1.00
H2       0.33789    0.81802    0.33155   1.00
H2       0.35159    0.88164    0.31269   1.00
H2       0.36536    0.81288    0.30597   1.00
C5       -0.09239   0.54909    0.28281   1.00
H2       -0.14857   0.52158    0.28037   1.00
H2       -0.07150   0.52306    0.27332   1.00
C5       -0.06018   0.62443    0.27652   1.00
H2       -0.07714   0.62807    0.26099   1.00
C5       0.39150    1.06211    0.41017   1.00
H2       0.43712    1.07232    0.41916   1.00
H2       0.35365    1.00740    0.41262   1.00
C5       0.36328    1.10760    0.41802   1.00
H2       0.33130    1.08492    0.43178   1.00
H2       0.33193    1.11347    0.40604   1.00
O_3      0.39426    1.00227    0.30672   1.00
C4       0.49537    1.01894    0.33470   1.00
C3c      0.46704    1.01425    0.35399   1.00
H1       0.42322    0.96689    0.35874   1.00
C3d      0.55305    1.08082    0.32892   1.00
C3       0.49390    1.07044    0.36729   1.00
O2       0.46884    1.05965    0.38678   1.00
C3       0.57912    1.13725    0.34198   1.00
H1       0.62192    1.18434    0.33660   1.00
C2       0.55064    1.13361    0.36145   1.00
C5       0.42131    1.04590    0.28978   1.00
H2       0.40608    1.01736    0.27516   1.00
H2       0.47815    1.07578    0.29041   1.00
C5       0.39372    1.09480    0.29020   1.00
H2       0.40729    1.12194    0.30504   1.00
H2       0.33700    1.06446    0.28937   1.00
C5       0.42264    1.14587    0.27262   1.00
H2       0.40969    1.11908    0.25775   1.00
H2       0.47908    1.17780    0.27383   1.00
H2       0.40075    1.18020    0.27292   1.00
C5       0.62809    1.06781    0.30897   1.00
C5       0.41508    1.07422    0.38803   1.00
H2       0.60421    1.01258    0.31257   1.00
H2       0.67073    1.09707    0.31984   1.00
H2       0.37238    1.03949    0.37783   1.00
H2       0.43128    1.12777    0.38344   1.00
H2       0.40549    1.15912    0.42259   1.00
H2       0.66030    0.98494    0.28305   1.00
H2       0.73511    1.05332    0.29538   1.00
C2       0.41136    0.85234    0.29269   1.00
C3       0.45936    0.85767    0.30730   1.00
O2       0.49226    0.82061    0.30518   1.00
C3       0.38966    0.90109    0.29301   1.00
H1       0.35168    0.89740    0.28237   1.00
C3a      0.48564    0.91185    0.32139   1.00
H1       0.52521    0.91746    0.33172   1.00
C3b      0.41751    0.95614    0.30662   1.00
C4       0.46600    0.96197    0.32093   1.00
O_3      0.57967    1.08967    0.30954   1.00
C5       0.46298    0.76353    0.31820   1.00
H2       0.46663    0.77934    0.33441   1.00
C5       0.50282    0.72598    0.31520   1.00
H2       0.40827    0.72871    0.31439   1.00
H2       0.55116    0.75308    0.32400   1.00
H2       0.51751    0.73084    0.29890   1.00
C5       0.46196    0.65031    0.32148   1.00
H2       0.44314    0.64622    0.33727   1.00
H2       0.49445    0.62628    0.32070   1.00
H2       0.41782    0.62049    0.31108   1.00
C5       0.65681    1.07966    0.28754   1.00
H2       0.69058    1.13551    0.28523   1.00
H2       0.61365    1.06259    0.27666   1.00
C5       0.69571    1.04122    0.28352   1.00
H2       0.72184    1.05660    0.26859   1.00
C5       0.66957    0.60794    0.41035   1.00
H2       0.63416    0.56215    0.41928   1.00
H2       0.65250    0.64562    0.41282   1.00
C5       0.74321    0.63629    0.41827   1.00
H2       0.75224    0.66808    0.43206   1.00
H2       0.78053    0.66788    0.40635   1.00
O_3      0.60813    0.60621    0.30685   1.00
C4       0.52358    0.50463    0.33470   1.00
C3c      0.54692    0.53276    0.35402   1.00
H1       0.54313    0.57641    0.35880   1.00
C3d      0.52808    0.44715    0.32888   1.00
C3       0.57625    0.50590    0.36733   1.00
O2       0.59022    0.53073    0.38685   1.00
C3       0.55845    0.42109    0.34194   1.00
H1       0.56299    0.37847    0.33653   1.00
C2       0.58299    0.44938    0.36145   1.00
C5       0.62506    0.57950    0.28990   1.00
H2       0.61184    0.59483    0.27528   1.00
H2       0.59827    0.52266    0.29047   1.00
C5       0.70157    0.60733    0.29040   1.00
H2       0.71505    0.59366    0.30525   1.00
H2       0.72780    0.66405    0.28963   1.00
C5       0.72410    0.57877    0.27282   1.00
H2       0.71037    0.59183    0.25795   1.00
H2       0.69976    0.52233    0.27397   1.00
H2       0.78035    0.60084    0.27317   1.00
C5       0.44041    0.37216    0.30881   1.00
C5       0.65845    0.58464    0.38818   1.00
H2       0.40886    0.39583    0.31241   1.00
H2       0.42704    0.32942    0.31964   1.00
H2       0.66639    0.62741    0.37802   1.00
H2       0.69599    0.56867    0.38361   1.00
H2       0.75266    0.59416    0.42282   1.00
H2       0.32555    0.33987    0.28279   1.00
H2       0.31925    0.26504    0.29506   1.00
C2       0.44101    0.58866    0.29269   1.00
C3       0.39826    0.54041    0.30724   1.00
O2       0.32833    0.50732    0.30504   1.00
C3       0.51150    0.61059    0.29308   1.00
H1       0.54585    0.64877    0.28249   1.00
C3a      0.42615    0.51411    0.32133   1.00
H1       0.39215    0.47436    0.33161   1.00
C3b      0.53871    0.58274    0.30668   1.00
C4       0.49598    0.53400    0.32093   1.00
O_3      0.51062    0.42075    0.30947   1.00
C5       0.30020    0.53628    0.31806   1.00
H2       0.31220    0.53248    0.33427   1.00
C5       0.22285    0.49624    0.31498   1.00
H2       0.31995    0.59100    0.31431   1.00
H2       0.20165    0.44780    0.32372   1.00
H2       0.21325    0.48174    0.29866   1.00
C5       0.18772    0.53680    0.32126   1.00
H2       0.20222    0.55545    0.33708   1.00
H2       0.13124    0.50417    0.32042   1.00
H2       0.20203    0.58104    0.31090   1.00
C5       0.42388    0.34370    0.28735   1.00
H2       0.44617    0.31011    0.28503   1.00
H2       0.44999    0.38701    0.27652   1.00
C5       0.34660    0.30462    0.28324   1.00
H2       0.33611    0.27868    0.26828   1.00
C5       0.30980    0.38402    0.24776   1.00
H2       0.35915    0.42950    0.24363   1.00
H2       0.31789    0.33969    0.24635   1.00
C5       0.29131    0.39114    0.26988   1.00
H2       0.31891    0.37607    0.28081   1.00
H2       0.23544    0.35827    0.27232   1.00
O_3      0.05726    0.24514    0.17371   1.00
C4       0.19151    0.35280    0.16784   1.00
C3c      0.22805    0.35349    0.18513   1.00
H1       0.23506    0.31052    0.18825   1.00
C3d      0.18379    0.40973    0.16391   1.00
C3       0.25518    0.40876    0.19878   1.00
O2       0.29728    0.40955    0.21396   1.00
C3       0.20962    0.46427    0.17767   1.00
H1       0.20035    0.50572    0.17439   1.00
C2       0.24606    0.46546    0.19534   1.00
C5       0.00781    0.26129    0.16699   1.00
H2       -0.02849   0.22318    0.15593   1.00
H2       0.03227    0.31256    0.15967   1.00
C5       -0.03218   0.26172    0.18544   1.00
H2       0.00432    0.29840    0.19674   1.00
H2       -0.05689   0.21012    0.19252   1.00
C5       -0.08569   0.28130    0.17958   1.00
H2       -0.12202   0.24515    0.16819   1.00
H2       -0.06089   0.33375    0.17315   1.00
H2       -0.11540   0.27987    0.19318   1.00
C5       0.18420    0.43353    0.13027   1.00
C5       0.25885    0.37970    0.23174   1.00
H2       0.20476    0.39990    0.12583   1.00
H2       0.22772    0.48647    0.13233   1.00
H2       0.21973    0.32537    0.22882   1.00
H2       0.23140    0.40628    0.23717   1.00
H2       0.30675    0.44521    0.27350   1.00
H2       0.17364    0.39416    0.08817   1.00
H2       0.22346    0.48594    0.09179   1.00
C2       0.10125    0.18301    0.12702   1.00
C3       0.16984    0.23464    0.12441   1.00
O2       0.20299    0.24050    0.10633   1.00
C3       0.06488    0.18731    0.14388   1.00
H1       0.01286    0.14771    0.14660   1.00
C3a      0.19968    0.28964    0.13820   1.00
H1       0.25096    0.33071    0.13534   1.00
C3b      0.09400    0.24317    0.15718   1.00
C4       0.16185    0.29498    0.15439   1.00
O_3      0.14392    0.40938    0.14795   1.00
C5       0.24667    0.21316    0.10828   1.00
H2       0.28583    0.24021    0.12031   1.00
C5       0.28219    0.22260    0.08781   1.00
H2       0.21726    0.15782    0.11210   1.00
H2       0.32477    0.27626    0.08673   1.00
H2       0.24488    0.21602    0.07576   1.00
C5       0.30875    0.17246    0.08458   1.00
H2       0.34162    0.17592    0.09757   1.00
H2       0.33915    0.18460    0.07036   1.00
H2       0.26580    0.11881    0.08305   1.00
C5       0.13865    0.43344    0.11327   1.00
H2       0.12776    0.47558    0.11607   1.00
H2       0.08899    0.38485    0.11412   1.00
C5       0.17119    0.44073    0.09225   1.00
H2       0.14005    0.44763    0.08047   1.00
C5       0.39646    0.57887    0.16824   1.00
H2       0.40417    0.56449    0.18370   1.00
H2       0.41502    0.55365    0.15760   1.00
C5       0.31966    0.55246    0.16475   1.00
H2       0.29251    0.49753    0.16049   1.00
H2       0.31288    0.58222    0.15245   1.00
O_3      0.64002    0.89656    0.13124   1.00
C4       0.64808    0.83860    0.16817   1.00
C3c      0.59701    0.76967    0.16729   1.00
H1       0.60027    0.73656    0.15608   1.00
C3d      0.64337    0.88064    0.18307   1.00
C3       0.54071    0.74261    0.18055   1.00
O2       0.49731    0.67315    0.18044   1.00
C3       0.58672    0.85418    0.19605   1.00
H1       0.58409    0.88894    0.20675   1.00
C2       0.53423    0.78477    0.19522   1.00
C5       0.64990    0.96286    0.13366   1.00
H2       0.69149    1.00085    0.12376   1.00
H2       0.66263    0.98036    0.14971   1.00
C5       0.58377    0.96038    0.12784   1.00
H2       0.54185    0.92104    0.13735   1.00
H2       0.57189    0.94348    0.11175   1.00
C5       0.58929    1.03017    0.13074   1.00
H2       0.63136    1.06980    0.12140   1.00
H2       0.59879    1.04602    0.14694   1.00
H2       0.54100    1.02773    0.12599   1.00
C5       0.74610    0.96210    0.19558   1.00
C5       0.44232    0.65641    0.16707   1.00
H2       0.77327    0.93703    0.18903   1.00
H2       0.73061    0.94349    0.21143   1.00
H2       0.46162    0.67219    0.15128   1.00
H2       0.41289    0.68228    0.17120   1.00
H2       0.29460    0.55641    0.17890   1.00
H2       0.89293    1.04146    0.19280   1.00
H2       0.86213    1.03220    0.21872   1.00
C2       0.81642    0.92565    0.12679   1.00
C3       0.82025    0.89362    0.14472   1.00
O2       0.88238    0.90446    0.15166   1.00
C3       0.75491    0.92508    0.12250   1.00
H1       0.74973    0.94760    0.10865   1.00
C3a      0.76398    0.86369    0.15805   1.00
H1       0.76909    0.84282    0.17226   1.00
C3b      0.69984    0.89720    0.13609   1.00
C4       0.70410    0.86632    0.15406   1.00
O_3      0.68951    0.94993    0.18358   1.00
C5       0.89036    0.84809    0.14692   1.00
H2       0.84923    0.80028    0.15397   1.00
C5       0.95958    0.86350    0.15538   1.00
H2       0.88947    0.84050    0.13019   1.00
H2       0.95399    0.85267    0.17196   1.00
H2       0.99515    0.91933    0.15371   1.00
C5       0.98845    0.82270    0.14472   1.00
H2       0.95006    0.76743    0.14515   1.00
H2       1.03579    0.83088    0.15238   1.00
H2       1.00251    0.83936    0.12862   1.00
C5       0.79469    1.03881    0.19601   1.00
H2       0.77185    1.06261    0.20564   1.00
H2       0.79854    1.05891    0.18035   1.00
C5       0.86589    1.05705    0.20384   1.00
H2       0.89763    1.11310    0.20595   1.00
C5       0.39721    0.77460    0.16115   1.00
H2       0.42161    0.80301    0.17529   1.00
H2       0.42114    0.81185    0.14859   1.00
C5       0.41150    0.71492    0.15867   1.00
H2       0.46311    0.73320    0.15212   1.00
H2       0.37264    0.67523    0.14852   1.00
O_3      0.07992    0.73159    0.13544   1.00
C4       0.16156    0.80961    0.16815   1.00
C3c      0.22604    0.81659    0.16490   1.00
H1       0.25567    0.84437    0.15180   1.00
C3d      0.12421    0.77405    0.18546   1.00
C3       0.25287    0.78725    0.17821   1.00
O2       0.31949    0.80323    0.17543   1.00
C3       0.15021    0.74367    0.19853   1.00
H1       0.11868    0.71484    0.21121   1.00
C2       0.21501    0.74960    0.19534   1.00
C5       0.01271    0.68390    0.14140   1.00
H2       -0.02617   0.68941    0.13252   1.00
H2       0.00454    0.68941    0.15782   1.00
C5       0.00217    0.61305    0.13768   1.00
H2       0.04221    0.60820    0.14609   1.00
H2       0.00981    0.60790    0.12121   1.00
C5       -0.06916   0.55782    0.14445   1.00
H2       -0.10940   0.56265    0.13621   1.00
H2       -0.07600   0.56144    0.16103   1.00
H2       -0.07645   0.50641    0.14121   1.00
C5       0.06047    0.81630    0.19922   1.00
C5       0.32177    0.75339    0.16306   1.00
H2       0.08769    0.86452    0.19041   1.00
H2       0.08600    0.82403    0.21425   1.00
H2       0.29986    0.75229    0.14781   1.00
H2       0.29210    0.70091    0.16961   1.00
H2       0.41084    0.69146    0.17365   1.00
H2       -0.00224   0.90006    0.19636   1.00
H2       0.01630    0.88793    0.22236   1.00
C2       0.07395    0.89101    0.12702   1.00
C3       0.11767    0.93227    0.14267   1.00
O2       0.11936    0.99192    0.14813   1.00
C3       0.06288    0.82407    0.12476   1.00
H1       0.03111    0.79182    0.11261   1.00
C3a      0.14758    0.90556    0.15588   1.00
H1       0.17778    0.93643    0.16849   1.00
C3b      0.09094    0.79693    0.13831   1.00
C4       0.13355    0.83765    0.15405   1.00
O_3      0.05840    0.76132    0.18853   1.00
C5       0.17763    1.04861    0.13988   1.00
H2       0.22546    1.05103    0.14536   1.00
C5       0.17638    1.11244    0.14687   1.00
H2       0.17680    1.04651    0.12299   1.00
H2       0.19557    1.12407    0.16274   1.00
H2       0.12202    1.09949    0.14734   1.00
C5       0.21832    1.17459    0.13303   1.00
H2       0.27100    1.18344    0.13145   1.00
H2       0.22093    1.22124    0.13951   1.00
H2       0.19451    1.16697    0.11768   1.00
C5       -0.01283   0.79951    0.20257   1.00
H2       -0.03644   0.75849    0.21421   1.00
H2       -0.04160   0.77816    0.18820   1.00
C5       -0.01710   0.86260    0.20904   1.00
H2       -0.07031   0.84717    0.21338   1.00
C5       1.03557    0.58921    0.57990   1.00
H2       1.07506    0.64362    0.58187   1.00
H2       0.98598    0.58808    0.57937   1.00
C5       1.04820    0.56216    0.55976   1.00
H2       1.02732    0.57697    0.54667   1.00
H2       1.02348    0.50558    0.56029   1.00
O_3      0.92896    0.38320    0.66586   1.00
C4       1.01938    0.52494    0.66547   1.00
C3c      1.01422    0.54714    0.64600   1.00
H1       0.96660    0.54280    0.64116   1.00
C3d      1.08218    0.53195    0.67159   1.00
C3       1.06969    0.57423    0.63242   1.00
O2       1.06345    0.60247    0.61464   1.00
C3       1.13711    0.55770    0.65797   1.00
H1       1.18350    0.55986    0.66309   1.00
C2       1.13254    0.57969    0.63815   1.00
C5       0.95546    0.34725    0.67639   1.00
H2       0.92049    0.31421    0.68860   1.00
H2       1.00579    0.38299    0.68340   1.00
C5       0.96474    0.30222    0.66114   1.00
H2       0.99815    0.33501    0.64864   1.00
H2       0.91410    0.26633    0.65438   1.00
C5       0.99578    0.26295    0.67123   1.00
H2       0.96291    0.23045    0.68382   1.00
H2       1.04737    0.29871    0.67737   1.00
H2       1.00078    0.22919    0.65995   1.00
C5       1.10572    0.55600    0.70521   1.00
C5       1.03962    0.55304    0.59902   1.00
H2       1.06514    0.56957    0.70709   1.00
H2       1.15479    0.60337    0.70175   1.00
H2       0.98816    0.50970    0.60297   1.00
H2       1.07397    0.53150    0.59643   1.00
H2       1.10395    0.58447    0.55677   1.00
H2       1.06250    0.56251    0.74597   1.00
H2       1.15248    0.62232    0.74172   1.00
C2       0.85042    0.43510    0.70659   1.00
C3       0.89298    0.50662    0.70591   1.00
O2       0.89183    0.54678    0.72147   1.00
C3       0.86308    0.39489    0.69277   1.00
H1       0.83036    0.34014    0.69255   1.00
C3a      0.94763    0.53593    0.69199   1.00
H1       0.98207    0.59042    0.69245   1.00
C3b      0.91877    0.42402    0.67940   1.00
C4       0.96166    0.49504    0.67895   1.00
O_3      1.08842    0.50618    0.69000   1.00
C5       0.85403    0.57812    0.71566   1.00
H2       0.87656    0.61088    0.70197   1.00
C5       0.85616    0.62241    0.73350   1.00
H2       0.80005    0.53923    0.71230   1.00
H2       0.90599    0.67087    0.73321   1.00
H2       0.85542    0.59541    0.74771   1.00
C5       0.79665    0.63717    0.73328   1.00
H2       0.79492    0.65915    0.71837   1.00
H2       0.80307    0.67404    0.74544   1.00
H2       0.74673    0.58986    0.73616   1.00
C5       1.11327    0.52593    0.72503   1.00
H2       1.16110    0.52341    0.72434   1.00
H2       1.07026    0.47247    0.72621   1.00
C5       1.11360    0.56750    0.74356   1.00
H2       1.12627    0.54843    0.75748   1.00
C5       0.57620    -0.04275   0.58261   1.00
H2       0.58522    -0.08572   0.58584   1.00
H2       0.62715    0.00412    0.58309   1.00
C5       0.54413    -0.05208   0.56129   1.00
H2       0.58404    -0.03415   0.54930   1.00
H2       0.51682    -0.02278   0.56014   1.00
O_3      0.46713    0.08084    0.66230   1.00
C4       0.50546    -0.01943   0.66549   1.00
C3c      0.53789    -0.01720   0.64711   1.00
H1       0.58517    0.02808    0.64314   1.00
C3d      0.44439    -0.07929   0.67051   1.00
C3       0.50963    -0.07256   0.63350   1.00
O2       0.54830    -0.06993   0.61705   1.00
C3       0.41545    -0.13400   0.65681   1.00
H1       0.36733    -0.17789   0.66100   1.00
C2       0.44719    -0.13231   0.63807   1.00
C5       0.40238    0.05982    0.67081   1.00
H2       0.40408    0.09647    0.68240   1.00
H2       0.38098    0.00869    0.67810   1.00
C5       0.35541    0.05563    0.65372   1.00
H2       0.35521    0.02047    0.64186   1.00
H2       0.37693    0.10707    0.64668   1.00
C5       0.28295    0.03067    0.66156   1.00
H2       0.28284    0.06528    0.67351   1.00
H2       0.26053    -0.02167   0.66796   1.00
H2       0.24974    0.02937    0.64895   1.00
C5       0.43151    -0.10354   0.70435   1.00
C5       0.53195    -0.04246   0.60013   1.00
H2       0.48604    -0.06669   0.70760   1.00
H2       0.42567    -0.15487   0.70171   1.00
H2       0.54390    0.01071    0.60345   1.00
H2       0.47670    -0.07259   0.59599   1.00
H2       0.50769    -0.10705   0.55800   1.00
H2       0.46969    -0.06289   0.74601   1.00
H2       0.43300    -0.15412   0.74220   1.00
C2       0.58476    0.14999    0.70644   1.00
C3       0.60746    0.10227    0.70763   1.00
O2       0.64126    0.09932    0.72467   1.00
C3       0.53831    0.14211    0.69089   1.00
H1       0.52132    0.17875    0.68924   1.00
C3a      0.58224    0.04744    0.69378   1.00
H1       0.59710    0.00920    0.69562   1.00
C3b      0.51166    0.08633    0.67755   1.00
C4       0.53346    0.03835    0.67895   1.00
O_3      0.40783    -0.08217   0.68767   1.00
C5       0.71199    0.13155    0.72092   1.00
H2       0.72351    0.10664    0.70810   1.00
C5       0.74551    0.12512    0.74031   1.00
H2       0.73310    0.18652    0.71722   1.00
H2       0.73889    0.07300    0.74085   1.00
H2       0.71644    0.12888    0.75340   1.00
C5       0.82162    0.17965    0.74192   1.00
H2       0.84880    0.17873    0.72800   1.00
H2       0.84552    0.16987    0.75530   1.00
H2       0.82858    0.23177    0.74401   1.00
C5       0.38909    -0.10718   0.72272   1.00
H2       0.33695    -0.15202   0.72092   1.00
H2       0.38362    -0.06095   0.72273   1.00
C5       0.42172    -0.11163   0.74273   1.00
H2       0.38615    -0.12135   0.75555   1.00
C5       0.38216    0.42459    0.58249   1.00
H2       0.33006    0.41534    0.58568   1.00
H2       0.37825    0.37372    0.58293   1.00
C5       0.40507    0.45695    0.56121   1.00
H2       0.38335    0.41718    0.54917   1.00
H2       0.46170    0.48445    0.56012   1.00
O_3      0.61386    0.53338    0.66243   1.00
C4       0.47510    0.49454    0.66549   1.00
C3c      0.44519    0.46228    0.64707   1.00
H1       0.44343    0.41514    0.64306   1.00
C3d      0.47600    0.55542    0.67056   1.00
C3       0.41809    0.49054    0.63345   1.00
O2       0.38233    0.45201    0.61695   1.00
C3       0.45023    0.58437    0.65686   1.00
H1       0.45423    0.63236    0.66108   1.00
C2       0.42048    0.55281    0.63807   1.00
C5       0.65732    0.59807    0.67101   1.00
H2       0.69220    0.59636    0.68263   1.00
H2       0.62735    0.61922    0.67830   1.00
C5       0.70019    0.64532    0.65399   1.00
H2       0.66532    0.64554    0.64211   1.00
H2       0.73035    0.62405    0.64696   1.00
C5       0.74741    0.71774    0.66192   1.00
H2       0.78205    0.71783    0.67390   1.00
H2       0.71727    0.73991    0.66831   1.00
H2       0.77941    0.75116    0.64935   1.00
C5       0.46415    0.56782    0.70440   1.00
C5       0.42639    0.46871    0.60007   1.00
H2       0.44661    0.51329    0.70760   1.00
H2       0.41857    0.57350    0.70172   1.00
H2       0.46770    0.45691    0.60342   1.00
H2       0.45139    0.52401    0.59599   1.00
H2       0.38639    0.49329    0.55794   1.00
H2       0.46626    0.52921    0.74603   1.00
H2       0.41152    0.56565    0.74221   1.00
C2       0.56520    0.41524    0.70645   1.00
C3       0.49473    0.39230    0.70757   1.00
O2       0.45783    0.35821    0.72456   1.00
C3       0.60386    0.46195    0.69095   1.00
H1       0.65755    0.47914    0.68936   1.00
C3a      0.46513    0.41752    0.69372   1.00
H1       0.41196    0.40245    0.69551   1.00
C3b      0.57472    0.48859    0.67762   1.00
C4       0.50488    0.46654    0.67895   1.00
O_3      0.50940    0.59184    0.68776   1.00
C5       0.41958    0.28751    0.72072   1.00
H2       0.38328    0.27603    0.70787   1.00
C5       0.37944    0.25366    0.74007   1.00
H2       0.45364    0.26663    0.71703   1.00
H2       0.33383    0.26008    0.74057   1.00
H2       0.41207    0.28264    0.75320   1.00
C5       0.35811    0.17760    0.74160   1.00
H2       0.33024    0.15053    0.72764   1.00
H2       0.32429    0.15344    0.75494   1.00
H2       0.40336    0.17080    0.74372   1.00
C5       0.50261    0.61007    0.72283   1.00
H2       0.50974    0.66217    0.72107   1.00
H2       0.55440    0.61575    0.72287   1.00
C5       0.46535    0.57712    0.74278   1.00
H2       0.49094    0.61256    0.75565   1.00
C5       0.30450    -0.30856   0.17966   1.00
H2       0.26320    -0.31438   0.16932   1.00
H2       0.28858    -0.30274   0.19512   1.00
C5       0.31131    -0.37315   0.17851   1.00
H2       0.27224    -0.41457   0.18818   1.00
H2       0.36296    -0.36111   0.18367   1.00
O_3      0.59405    0.01260    0.18721   1.00
C4       0.47530    -0.01876   0.16524   1.00
C3c      0.42559    -0.08425   0.17159   1.00
H1       0.40819    -0.09246   0.18715   1.00
C3d      0.49656    -0.00895   0.14483   1.00
C3       0.39834    -0.14012   0.15816   1.00
O2       0.34411    -0.20066   0.16478   1.00
C3       0.47048    -0.06473   0.13152   1.00
H1       0.49010    -0.05520   0.11620   1.00
C2       0.42074    -0.13145   0.13775   1.00
C5       0.65382    0.04728    0.17539   1.00
H2       0.69233    0.09631    0.18246   1.00
H2       0.64205    0.05852    0.15991   1.00
C5       0.68455    0.00128    0.17356   1.00
H2       0.64541    -0.04844   0.16702   1.00
H2       0.69668    -0.00907   0.18908   1.00
C5       0.74873    0.03421    0.16027   1.00
H2       0.78786    0.08411    0.16664   1.00
H2       0.73625    0.04240    0.14457   1.00
H2       0.77131    0.00053    0.15948   1.00
C5       0.52202    0.09467    0.13198   1.00
C5       0.36800    -0.24239   0.17312   1.00
H2       0.49680    0.10531    0.14481   1.00
H2       0.48434    0.07047    0.11943   1.00
H2       0.40130    -0.21673   0.18649   1.00
H2       0.39860    -0.25349   0.16203   1.00
H2       0.30265    -0.39387   0.16272   1.00
H2       0.55282    0.23367    0.13774   1.00
H2       0.51466    0.19932    0.11316   1.00
C2       0.56566    0.15152    0.20588   1.00
C3       0.50410    0.13456    0.19584   1.00
O2       0.48156    0.18093    0.19488   1.00
C3       0.59429    0.10912    0.20293   1.00
H1       0.64041    0.11969    0.21080   1.00
C3a      0.47383    0.07744    0.18283   1.00
H1       0.42885    0.06742    0.17436   1.00
C3b      0.56524    0.05365    0.18948   1.00
C4       0.50463    0.03748    0.17927   1.00
O_3      0.54901    0.05331    0.13820   1.00
C5       0.42887    0.16394    0.20909   1.00
H2       0.38465    0.11195    0.20616   1.00
C5       0.40600    0.21680    0.20684   1.00
H2       0.44738    0.16557    0.22486   1.00
H2       0.37146    0.20272    0.19348   1.00
H2       0.45207    0.26652    0.20315   1.00
C5       0.37058    0.22324    0.22601   1.00
H2       0.32804    0.17217    0.23039   1.00
H2       0.34965    0.25776    0.22321   1.00
H2       0.40718    0.24567    0.23893   1.00
C5       0.58120    0.16188    0.12449   1.00
H2       0.59879    0.15274    0.10965   1.00
H2       0.62436    0.17841    0.13534   1.00
C5       0.56145    0.21757    0.12254   1.00
H2       0.60330    0.26342    0.11507   1.00
C5       1.07908    0.37656    0.09611   1.00
H2       1.08434    0.41657    0.08533   1.00
H2       1.02605    0.33362    0.09430   1.00
C5       1.13084    0.35346    0.09056   1.00
H2       1.11117    0.31581    0.07792   1.00
H2       1.14072    0.32982    0.10398   1.00
O_3      1.01332    0.41044    0.19729   1.00
C4       1.01886    0.49529    0.16527   1.00
C3c      1.01786    0.46126    0.14736   1.00
H1       0.97340    0.41291    0.14369   1.00
C3d      1.07690    0.55871    0.16962   1.00
C3       1.07415    0.48830    0.13409   1.00
O2       1.06630    0.45642    0.11570   1.00
C3       1.13354    0.58514    0.15664   1.00
H1       1.17783    0.63275    0.16097   1.00
C2       1.13367    0.55103    0.13857   1.00
C5       1.05568    0.44744    0.21373   1.00
H2       1.02712    0.43521    0.22834   1.00
H2       1.08015    0.50351    0.21111   1.00
C5       1.11081    0.42817    0.21557   1.00
H2       1.13811    0.43859    0.20080   1.00
H2       1.08584    0.37222    0.21837   1.00
C5       1.16079    0.46811    0.23272   1.00
H2       1.13380    0.45831    0.24750   1.00
H2       1.18749    0.52386    0.22959   1.00
H2       1.19982    0.45225    0.23412   1.00
C5       1.05334    0.63378    0.18569   1.00
C5       1.08846    0.40824    0.11722   1.00
H2       0.99804    0.60323    0.18209   1.00
H2       1.07914    0.67280    0.17356   1.00
H2       1.05689    0.36820    0.12858   1.00
H2       1.14291    0.43186    0.12212   1.00
H2       1.18009    0.39734    0.08515   1.00
H2       0.96119    0.66255    0.20821   1.00
H2       1.02433    0.73576    0.19397   1.00
C2       0.85245    0.41207    0.20735   1.00
C3       0.85237    0.45152    0.19078   1.00
O2       0.80906    0.47787    0.19062   1.00
C3       0.90668    0.39825    0.20902   1.00
H1       0.90733    0.36675    0.22123   1.00
C3a      0.90664    0.47747    0.17672   1.00
H1       0.90782    0.51079    0.16478   1.00
C3b      0.96166    0.42594    0.19538   1.00
C4       0.96205    0.46602    0.17910   1.00
O_3      1.08251    0.59174    0.18779   1.00
C5       0.75268    0.43854    0.17789   1.00
H2       0.76927    0.43784    0.16199   1.00
C5       0.70794    0.47156    0.17827   1.00
H2       0.72265    0.38500    0.18346   1.00
H2       0.73071    0.51634    0.16790   1.00
H2       0.71090    0.49190    0.19385   1.00
C5       0.63323    0.42169    0.17238   1.00
H2       0.63159    0.39782    0.15751   1.00
H2       0.60375    0.44883    0.17117   1.00
H2       0.60703    0.38103    0.18410   1.00
C5       1.06181    0.66990    0.20586   1.00
H2       1.11655    0.70917    0.20774   1.00
H2       1.04895    0.63199    0.21827   1.00
C5       1.01623    0.70232    0.20728   1.00
H2       1.02890    0.73407    0.22119   1.00
C5       0.60761    0.66896    0.08955   1.00
H2       0.56173    0.63355    0.08065   1.00
H2       0.64519    0.65176    0.08707   1.00
C5       0.63604    0.74256    0.08158   1.00
H2       0.66772    0.75143    0.06777   1.00
H2       0.66776    0.77993    0.09348   1.00
O_3      0.60649    0.60819    0.19307   1.00
C4       0.50463    0.52358    0.16530   1.00
C3c      0.53264    0.54674    0.14595   1.00
H1       0.57620    0.54282    0.14116   1.00
C3d      0.44726    0.52826    0.17115   1.00
C3       0.50578    0.57607    0.13265   1.00
O2       0.53048    0.58986    0.11311   1.00
C3       0.42121    0.55863    0.15808   1.00
H1       0.37869    0.56332    0.16351   1.00
C2       0.44938    0.58300    0.13855   1.00
C5       0.57997    0.62532    0.21002   1.00
H2       0.59535    0.61216    0.22464   1.00
H2       0.52313    0.59863    0.20949   1.00
C5       0.60794    0.70186    0.20948   1.00
H2       0.59421    0.71528    0.19464   1.00
H2       0.66466    0.72799    0.21022   1.00
C5       0.57959    0.72460    0.22707   1.00
H2       0.59271    0.71093    0.24194   1.00
H2       0.52316    0.70036    0.22595   1.00
H2       0.60177    0.78086    0.22668   1.00
C5       0.37231    0.44081    0.19128   1.00
C5       0.58447    0.65804    0.11173   1.00
H2       0.39585    0.40914    0.18769   1.00
H2       0.32951    0.42745    0.18047   1.00
H2       0.62728    0.66596    0.12187   1.00
H2       0.56864    0.69569    0.11629   1.00
H2       0.59395    0.75209    0.07705   1.00
H2       0.33998    0.32607    0.21737   1.00
H2       0.26513    0.31985    0.20513   1.00
C2       0.58868    0.44102    0.20731   1.00
C3       0.54027    0.39823    0.19280   1.00
O2       0.50708    0.32831    0.19504   1.00
C3       0.61074    0.51154    0.20688   1.00
H1       0.64903    0.54592    0.21744   1.00
C3a      0.51397    0.42611    0.17871   1.00
H1       0.47412    0.39209    0.16846   1.00
C3b      0.58288    0.53874    0.19328   1.00
C4       0.53400    0.49598    0.17907   1.00
O_3      0.42100    0.51098    0.19058   1.00
C5       0.53584    0.29999    0.18202   1.00
H2       0.53196    0.31189    0.16580   1.00
C5       0.49570    0.22266    0.18515   1.00
H2       0.59057    0.31966    0.18574   1.00
H2       0.44720    0.20149    0.17643   1.00
H2       0.48131    0.21321    0.20148   1.00
C5       0.53608    0.18735    0.17887   1.00
H2       0.55463    0.20171    0.16304   1.00
H2       0.50336    0.13089    0.17974   1.00
H2       0.58038    0.20165    0.18920   1.00
C5       0.34399    0.42448    0.21276   1.00
H2       0.31051    0.44689    0.21508   1.00
H2       0.38739    0.45059    0.22356   1.00
C5       0.30481    0.34722    0.21692   1.00
H2       0.27899    0.33689    0.23189   1.00
C5       0.35721    0.64828    0.65339   1.00
H2       0.34979    0.60510    0.66314   1.00
H2       0.36227    0.63383    0.63766   1.00
C5       0.29428    0.65773    0.65516   1.00
H2       0.25215    0.62086    0.64523   1.00
H2       0.30821    0.71054    0.65069   1.00
O_3      0.68353    0.93118    0.64770   1.00
C4       0.64787    0.80860    0.66809   1.00
C3c      0.58174    0.76146    0.66151   1.00
H1       0.57300    0.74607    0.64577   1.00
C3d      0.65832    0.82723    0.68872   1.00
C3       0.52590    0.73424    0.67495   1.00
O2       0.46442    0.68230    0.66800   1.00
C3       0.60263    0.80122    0.70207   1.00
H1       0.61276    0.81884    0.71760   1.00
C2       0.53529    0.75406    0.69562   1.00
C5       0.71992    0.98915    0.66014   1.00
H2       0.76952    1.02730    0.65327   1.00
H2       0.73041    0.97469    0.67534   1.00
C5       0.67619    1.02212    0.66280   1.00
H2       0.62590    0.98342    0.66913   1.00
H2       0.66658    1.03691    0.64755   1.00
C5       0.71106    1.08445    0.67679   1.00
H2       0.76152    1.12311    0.67062   1.00
H2       0.71853    1.06936    0.69222   1.00
H2       0.67903    1.10875    0.67819   1.00
C5       0.76076    0.84727    0.70113   1.00
C5       0.42459    0.70945    0.66036   1.00
H2       0.77015    0.82278    0.68785   1.00
H2       0.73550    0.80824    0.71328   1.00
H2       0.45111    0.74406    0.64731   1.00
H2       0.41498    0.73965    0.67199   1.00
H2       0.27362    0.64770    0.67096   1.00
H2       0.89808    0.87370    0.69474   1.00
H2       0.86285    0.83304    0.71899   1.00
C2       0.81832    0.89897    0.62751   1.00
C3       0.79916    0.83564    0.63674   1.00
O2       0.84360    0.81063    0.63700   1.00
C3       0.77802    0.92951    0.63123   1.00
H1       0.79029    0.97710    0.62398   1.00
C3a      0.74199    0.80544    0.64973   1.00
H1       0.73030    0.75892    0.65759   1.00
C3b      0.72251    0.90044    0.64467   1.00
C4       0.70415    0.83801    0.65408   1.00
O_3      0.72142    0.87727    0.69565   1.00
C5       0.82481    0.75948    0.62213   1.00
H2       0.77209    0.71616    0.62480   1.00
C5       0.87558    0.73371    0.62361   1.00
H2       0.82720    0.78031    0.60664   1.00
H2       0.86035    0.69736    0.63654   1.00
H2       0.92615    0.77815    0.62761   1.00
C5       0.88045    0.69982    0.60388   1.00
H2       0.82871    0.65913    0.59926   1.00
H2       0.91335    0.67672    0.60608   1.00
H2       0.90393    0.73788    0.59134   1.00
C5       0.82899    0.90386    0.70898   1.00
H2       0.82075    0.92024    0.72414   1.00
H2       0.84697    0.94856    0.69866   1.00
C5       0.88266    0.88119    0.71018   1.00
H2       0.92926    0.92100    0.71791   1.00
C5       0.42843    0.59411    0.67172   1.00
H2       0.40884    0.63027    0.67096   1.00
H2       0.44289    0.58945    0.65595   1.00
C5       0.49157    0.62349    0.68578   1.00
H2       0.53819    0.66138    0.67755   1.00
H2       0.49946    0.58166    0.69147   1.00
O_3      0.19097    0.24698    0.67304   1.00
C4       0.16090    0.35257    0.66793   1.00
C3c      0.22358    0.41170    0.66406   1.00
H1       0.25161    0.41500    0.65043   1.00
C3d      0.12472    0.34970    0.68563   1.00
C3       0.25153    0.46686    0.67775   1.00
O2       0.30873    0.52608    0.67179   1.00
C3       0.15302    0.40400    0.69948   1.00
H1       0.12456    0.39849    0.71320   1.00
C2       0.21671    0.46387    0.69592   1.00
C5       0.15238    0.20133    0.68869   1.00
H2       0.12393    0.14742    0.68335   1.00
H2       0.11486    0.21445    0.69518   1.00
C5       0.20167    0.20702    0.70524   1.00
H2       0.23146    0.26126    0.71018   1.00
H2       0.23848    0.19320    0.69864   1.00
C5       0.16354    0.16063    0.72325   1.00
H2       0.13330    0.10644    0.71839   1.00
H2       0.12850    0.17591    0.73028   1.00
H2       0.20050    0.16435    0.73499   1.00
C5       0.00911    0.29106    0.68183   1.00
C5       0.36793    0.52625    0.67869   1.00
H2       0.01266    0.29167    0.66500   1.00
H2       0.00496    0.33595    0.68681   1.00
H2       0.37092    0.48272    0.67187   1.00
H2       0.36873    0.52126    0.69556   1.00
H2       0.48563    0.65113    0.69897   1.00
H2       -0.11137   0.19732    0.65941   1.00
H2       -0.12418   0.25661    0.67479   1.00
C2       0.07698    0.18018    0.62805   1.00
C3       0.06415    0.23426    0.62455   1.00
O2       0.01205    0.22540    0.61179   1.00
C3       0.12054    0.18619    0.64428   1.00
H1       0.13278    0.14649    0.64704   1.00
C3a      0.09326    0.29160    0.63749   1.00
H1       0.07983    0.33077    0.63532   1.00
C3b      0.14764    0.24227    0.65751   1.00
C4       0.13399    0.29550    0.65421   1.00
O_3      0.06539    0.29072    0.69090   1.00
C5       0.03860    0.25593    0.59280   1.00
H2       0.07501    0.31176    0.59441   1.00
C5       -0.02192   0.24495    0.57972   1.00
H2       0.06547    0.23192    0.58529   1.00
H2       -0.03653   0.28337    0.58415   1.00
H2       -0.06589   0.19406    0.58371   1.00
C5       -0.00682   0.24925    0.55679   1.00
H2       0.04033    0.29812    0.55334   1.00
H2       -0.04974   0.24677    0.54786   1.00
H2       -0.00059   0.20565    0.55162   1.00
C5       -0.05488   0.22606    0.68833   1.00
H2       -0.06473   0.23090    0.70463   1.00
H2       -0.04456   0.18294    0.68720   1.00
C5       -0.11698   0.21148    0.67522   1.00
H2       -0.16392   0.16798    0.68168   1.00
C5       0.17547    0.57569    0.66962   1.00
H2       0.23157    0.59716    0.66942   1.00
H2       0.15848    0.56275    0.65362   1.00
C5       0.14190    0.51079    0.68297   1.00
H2       0.13588    0.46583    0.67435   1.00
H2       0.09087    0.50040    0.68823   1.00
O_3      0.05403    0.80372    0.67183   1.00
C4       0.19167    0.83913    0.66793   1.00
C3c      0.19103    0.77810    0.66360   1.00
H1       0.16861    0.75138    0.64960   1.00
C3d      0.22200    0.87365    0.68613   1.00
C3       0.21822    0.75010    0.67728   1.00
O2       0.22330    0.69491    0.67092   1.00
C3       0.24794    0.84523    0.69996   1.00
H1       0.26852    0.87229    0.71404   1.00
C2       0.24704    0.78317    0.69591   1.00
C5       0.04339    0.83928    0.68769   1.00
H2       0.01696    0.86680    0.68237   1.00
H2       0.09269    0.87719    0.69481   1.00
C5       -0.00105   0.78723    0.70355   1.00
H2       0.02445    0.75841    0.70845   1.00
H2       -0.05035   0.75003    0.69632   1.00
C5       -0.01318   0.82200    0.72175   1.00
H2       -0.03821   0.85127    0.71694   1.00
H2       0.03581    0.85740    0.72940   1.00
H2       -0.04699   0.78304    0.73297   1.00
C5       0.27586    0.98955    0.68358   1.00
C5       0.16469    0.63377    0.67697   1.00
H2       0.27505    0.98806    0.66672   1.00
H2       0.32505    0.99492    0.68895   1.00
H2       0.11824    0.62987    0.66979   1.00
H2       0.15677    0.63065    0.69377   1.00
H2       0.17427    0.51628    0.69644   1.00
H2       0.30098    1.11136    0.66224   1.00
H2       0.37206    1.12481    0.67823   1.00
C2       0.10299    0.92280    0.62804   1.00
C3       0.17107    0.93842    0.62513   1.00
O2       0.21459    0.99273    0.61307   1.00
C3       0.06452    0.87665    0.64367   1.00
H1       0.01175    0.86228    0.64595   1.00
C3a      0.19944    0.90941    0.63806   1.00
H1       0.25274    0.92490    0.63637   1.00
C3b      0.09352    0.84960    0.65691   1.00
C4       0.16151    0.86600    0.65420   1.00
O_3      0.21933    0.93110    0.69181   1.00
C5       0.22201    0.96926    0.59394   1.00
H2       0.24306    0.93417    0.59543   1.00
C5       0.27164    1.03209    0.58167   1.00
H2       0.17215    0.94189    0.58587   1.00
H2       0.32454    1.04792    0.58659   1.00
H2       0.26234    1.07438    0.58592   1.00
C5       0.26403    1.01975    0.55857   1.00
H2       0.26809    0.97408    0.55480   1.00
H2       0.30458    1.06448    0.55025   1.00
H2       0.21413    1.01234    0.55299   1.00
C5       0.27146    1.05135    0.69053   1.00
H2       0.28406    1.05954    0.70699   1.00
H2       0.21758    1.03930    0.68892   1.00
C5       0.31899    1.11566    0.67822   1.00
H2       0.31982    1.16095    0.68503   1.00
