data_IRMOF10_interpen_symm_ligand3cp_label_k_2.

_audit_creation_method             'generated by an auxiliary program of Tobunporous'

_symmetry_space_group_name_H-M     'P 1'
_symmetry_Int_Tables_number        1
_symmetry_cell_setting             triclinic

_cell_length_a                    22.6523
_cell_length_b                    22.6523
_cell_length_c                    65.9502
_cell_angle_alpha                 90.0000
_cell_angle_beta                  90.0000
_cell_angle_gamma                 120.0000

loop_
_atom_site_label
_atom_site_fract_x
_atom_site_fract_y
_atom_site_fract_z
_atom_site_occupancy
O1       0.00000    0.00000    0.57470   1.00
Zn1      0.00000    0.00000    0.54560   1.00
Zn1      0.94843    0.04287    0.58357   1.00
Zn1      0.09443    0.05157    0.58357   1.00
Zn1      0.95713    0.90557    0.58357   1.00
O2       0.93860    0.02610    0.53560   1.00
O2       0.08750    0.06140    0.53560   1.00
O2       0.97390    0.91250    0.53560   1.00
O2       0.91300    0.07160    0.56150   1.00
O2       0.00463    0.12027    0.60077   1.00
O2       0.87413    0.98077    0.60037   1.00
O2       0.15860    0.08700    0.56150   1.00
O2       0.10663    0.12587    0.60037   1.00
O2       0.11563    0.99537    0.60077   1.00
O2       0.92840    0.84140    0.56150   1.00
O2       0.87973    0.88437    0.60077   1.00
O2       0.01923    0.89337    0.60037   1.00
C1       0.91390    0.06020    0.54330   1.00
C1       0.14630    0.08610    0.54330   1.00
C1       0.93980    0.85370    0.54330   1.00
C1       0.06663    0.14397    0.60637   1.00
C1       0.85603    0.92267    0.60637   1.00
C1       0.07733    0.93337    0.60637   1.00
O1       0.00000    0.00000    0.92530   1.00
Zn1      0.00000    0.00000    0.95440   1.00
Zn1      0.04287    0.94843    0.91643   1.00
Zn1      0.05157    0.09443    0.91643   1.00
Zn1      0.90557    0.95713    0.91643   1.00
O2       0.02610    0.93860    0.96440   1.00
O2       0.06140    0.08750    0.96440   1.00
O2       0.91250    0.97390    0.96440   1.00
O2       0.07160    0.91300    0.93850   1.00
O2       0.12027    0.00463    0.89923   1.00
O2       0.98077    0.87413    0.89963   1.00
O2       0.08700    0.15860    0.93850   1.00
O2       0.12587    0.10663    0.89963   1.00
O2       0.99537    0.11563    0.89923   1.00
O2       0.84140    0.92840    0.93850   1.00
O2       0.88437    0.87973    0.89923   1.00
O2       0.89337    0.01923    0.89963   1.00
C1       0.06020    0.91390    0.95670   1.00
C1       0.08610    0.14630    0.95670   1.00
C1       0.85370    0.93980    0.95670   1.00
C1       0.14397    0.06663    0.89363   1.00
C1       0.92267    0.85603    0.89363   1.00
C1       0.93337    0.07733    0.89363   1.00
O1       0.00000    0.00000    0.42530   1.00
Zn1      0.00000    0.00000    0.45440   1.00
Zn1      0.05157    0.95713    0.41643   1.00
Zn1      0.90557    0.94843    0.41643   1.00
Zn1      0.04287    0.09443    0.41643   1.00
O2       0.06140    0.97390    0.46440   1.00
O2       0.91250    0.93860    0.46440   1.00
O2       0.02610    0.08750    0.46440   1.00
O2       0.08700    0.92840    0.43850   1.00
O2       0.99537    0.87973    0.39923   1.00
O2       0.12587    0.01923    0.39963   1.00
O2       0.84140    0.91300    0.43850   1.00
O2       0.89337    0.87413    0.39963   1.00
O2       0.88437    0.00463    0.39923   1.00
O2       0.07160    0.15860    0.43850   1.00
O2       0.12027    0.11563    0.39923   1.00
O2       0.98077    0.10663    0.39963   1.00
C1       0.08610    0.93980    0.45670   1.00
C1       0.85370    0.91390    0.45670   1.00
C1       0.06020    0.14630    0.45670   1.00
C1       0.93337    0.85603    0.39363   1.00
C1       0.14397    0.07733    0.39363   1.00
C1       0.92267    0.06663    0.39363   1.00
O1       0.00000    0.00000    0.07470   1.00
Zn1      0.00000    0.00000    0.04560   1.00
Zn1      0.95713    0.05157    0.08357   1.00
Zn1      0.94843    0.90557    0.08357   1.00
Zn1      0.09443    0.04287    0.08357   1.00
O2       0.97390    0.06140    0.03560   1.00
O2       0.93860    0.91250    0.03560   1.00
O2       0.08750    0.02610    0.03560   1.00
O2       0.92840    0.08700    0.06150   1.00
O2       0.87973    0.99537    0.10077   1.00
O2       0.01923    0.12587    0.10037   1.00
O2       0.91300    0.84140    0.06150   1.00
O2       0.87413    0.89337    0.10037   1.00
O2       0.00463    0.88437    0.10077   1.00
O2       0.15860    0.07160    0.06150   1.00
O2       0.11563    0.12027    0.10077   1.00
O2       0.10663    0.98077    0.10037   1.00
C1       0.93980    0.08610    0.04330   1.00
C1       0.91390    0.85370    0.04330   1.00
C1       0.14630    0.06020    0.04330   1.00
C1       0.85603    0.93337    0.10637   1.00
C1       0.07733    0.14397    0.10637   1.00
C1       0.06663    0.92267    0.10637   1.00
O1       0.66667    0.33333    0.90803   1.00
Zn1      0.66667    0.33333    0.87893   1.00
Zn1      0.61510    0.37620    0.91690   1.00
Zn1      0.76110    0.38490    0.91690   1.00
Zn1      0.62380    0.23890    0.91690   1.00
O2       0.60527    0.35943    0.86893   1.00
O2       0.75417    0.39473    0.86893   1.00
O2       0.64057    0.24583    0.86893   1.00
O2       0.57967    0.40493    0.89483   1.00
O2       0.67130    0.45360    0.93410   1.00
O2       0.54080    0.31410    0.93370   1.00
O2       0.82527    0.42033    0.89483   1.00
O2       0.77330    0.45920    0.93370   1.00
O2       0.78230    0.32870    0.93410   1.00
O2       0.59507    0.17473    0.89483   1.00
O2       0.54640    0.21770    0.93410   1.00
O2       0.68590    0.22670    0.93370   1.00
C1       0.58057    0.39353    0.87663   1.00
C1       0.81297    0.41943    0.87663   1.00
C1       0.60647    0.18703    0.87663   1.00
C1       0.73330    0.47730    0.93970   1.00
C1       0.52270    0.25600    0.93970   1.00
C1       0.74400    0.26670    0.93970   1.00
O1       0.66667    0.33333    0.25863   1.00
Zn1      0.66667    0.33333    0.28773   1.00
Zn1      0.70953    0.28177    0.24977   1.00
Zn1      0.71823    0.42777    0.24977   1.00
Zn1      0.57223    0.29047    0.24977   1.00
O2       0.69277    0.27193    0.29773   1.00
O2       0.72807    0.42083    0.29773   1.00
O2       0.57917    0.30723    0.29773   1.00
O2       0.73827    0.24633    0.27183   1.00
O2       0.78693    0.33797    0.23257   1.00
O2       0.64743    0.20747    0.23297   1.00
O2       0.75367    0.49193    0.27183   1.00
O2       0.79253    0.43997    0.23297   1.00
O2       0.66203    0.44897    0.23257   1.00
O2       0.50807    0.26173    0.27183   1.00
O2       0.55103    0.21307    0.23257   1.00
O2       0.56003    0.35257    0.23297   1.00
C1       0.72687    0.24723    0.29003   1.00
C1       0.75277    0.47963    0.29003   1.00
C1       0.52037    0.27313    0.29003   1.00
C1       0.81063    0.39997    0.22697   1.00
C1       0.58933    0.18937    0.22697   1.00
C1       0.60003    0.41067    0.22697   1.00
O1       0.66667    0.33333    0.75863   1.00
Zn1      0.66667    0.33333    0.78773   1.00
Zn1      0.71823    0.29047    0.74977   1.00
Zn1      0.57223    0.28177    0.74977   1.00
Zn1      0.70953    0.42777    0.74977   1.00
O2       0.72807    0.30723    0.79773   1.00
O2       0.57917    0.27193    0.79773   1.00
O2       0.69277    0.42083    0.79773   1.00
O2       0.75367    0.26173    0.77183   1.00
O2       0.66203    0.21307    0.73257   1.00
O2       0.79253    0.35257    0.73297   1.00
O2       0.50807    0.24633    0.77183   1.00
O2       0.56003    0.20747    0.73297   1.00
O2       0.55103    0.33797    0.73257   1.00
O2       0.73827    0.49193    0.77183   1.00
O2       0.78693    0.44897    0.73257   1.00
O2       0.64743    0.43997    0.73297   1.00
C1       0.75277    0.27313    0.79003   1.00
C1       0.52037    0.24723    0.79003   1.00
C1       0.72687    0.47963    0.79003   1.00
C1       0.60003    0.18937    0.72697   1.00
C1       0.81063    0.41067    0.72697   1.00
C1       0.58933    0.39997    0.72697   1.00
O1       0.66667    0.33333    0.40803   1.00
Zn1      0.66667    0.33333    0.37893   1.00
Zn1      0.62380    0.38490    0.41690   1.00
Zn1      0.61510    0.23890    0.41690   1.00
Zn1      0.76110    0.37620    0.41690   1.00
O2       0.64057    0.39473    0.36893   1.00
O2       0.60527    0.24583    0.36893   1.00
O2       0.75417    0.35943    0.36893   1.00
O2       0.59507    0.42033    0.39483   1.00
O2       0.54640    0.32870    0.43410   1.00
O2       0.68590    0.45920    0.43370   1.00
O2       0.57967    0.17473    0.39483   1.00
O2       0.54080    0.22670    0.43370   1.00
O2       0.67130    0.21770    0.43410   1.00
O2       0.82527    0.40493    0.39483   1.00
O2       0.78230    0.45360    0.43410   1.00
O2       0.77330    0.31410    0.43370   1.00
C1       0.60647    0.41943    0.37663   1.00
C1       0.58057    0.18703    0.37663   1.00
C1       0.81297    0.39353    0.37663   1.00
C1       0.52270    0.26670    0.43970   1.00
C1       0.74400    0.47730    0.43970   1.00
C1       0.73330    0.25600    0.43970   1.00
O1       0.33333    0.66667    0.24137   1.00
Zn1      0.33333    0.66667    0.21227   1.00
Zn1      0.28177    0.70953    0.25023   1.00
Zn1      0.42777    0.71823    0.25023   1.00
Zn1      0.29047    0.57223    0.25023   1.00
O2       0.27193    0.69277    0.20227   1.00
O2       0.42083    0.72807    0.20227   1.00
O2       0.30723    0.57917    0.20227   1.00
O2       0.24633    0.73827    0.22817   1.00
O2       0.33797    0.78693    0.26743   1.00
O2       0.20747    0.64743    0.26703   1.00
O2       0.49193    0.75367    0.22817   1.00
O2       0.43997    0.79253    0.26703   1.00
O2       0.44897    0.66203    0.26743   1.00
O2       0.26173    0.50807    0.22817   1.00
O2       0.21307    0.55103    0.26743   1.00
O2       0.35257    0.56003    0.26703   1.00
C1       0.24723    0.72687    0.20997   1.00
C1       0.47963    0.75277    0.20997   1.00
C1       0.27313    0.52037    0.20997   1.00
C1       0.39997    0.81063    0.27303   1.00
C1       0.18937    0.58933    0.27303   1.00
C1       0.41067    0.60003    0.27303   1.00
O1       0.33333    0.66667    0.59197   1.00
Zn1      0.33333    0.66667    0.62107   1.00
Zn1      0.37620    0.61510    0.58310   1.00
Zn1      0.38490    0.76110    0.58310   1.00
Zn1      0.23890    0.62380    0.58310   1.00
O2       0.35943    0.60527    0.63107   1.00
O2       0.39473    0.75417    0.63107   1.00
O2       0.24583    0.64057    0.63107   1.00
O2       0.40493    0.57967    0.60517   1.00
O2       0.45360    0.67130    0.56590   1.00
O2       0.31410    0.54080    0.56630   1.00
O2       0.42033    0.82527    0.60517   1.00
O2       0.45920    0.77330    0.56630   1.00
O2       0.32870    0.78230    0.56590   1.00
O2       0.17473    0.59507    0.60517   1.00
O2       0.21770    0.54640    0.56590   1.00
O2       0.22670    0.68590    0.56630   1.00
C1       0.39353    0.58057    0.62337   1.00
C1       0.41943    0.81297    0.62337   1.00
C1       0.18703    0.60647    0.62337   1.00
C1       0.47730    0.73330    0.56030   1.00
C1       0.25600    0.52270    0.56030   1.00
C1       0.26670    0.74400    0.56030   1.00
O1       0.33333    0.66667    0.09197   1.00
Zn1      0.33333    0.66667    0.12107   1.00
Zn1      0.38490    0.62380    0.08310   1.00
Zn1      0.23890    0.61510    0.08310   1.00
Zn1      0.37620    0.76110    0.08310   1.00
O2       0.39473    0.64057    0.13107   1.00
O2       0.24583    0.60527    0.13107   1.00
O2       0.35943    0.75417    0.13107   1.00
O2       0.42033    0.59507    0.10517   1.00
O2       0.32870    0.54640    0.06590   1.00
O2       0.45920    0.68590    0.06630   1.00
O2       0.17473    0.57967    0.10517   1.00
O2       0.22670    0.54080    0.06630   1.00
O2       0.21770    0.67130    0.06590   1.00
O2       0.40493    0.82527    0.10517   1.00
O2       0.45360    0.78230    0.06590   1.00
O2       0.31410    0.77330    0.06630   1.00
C1       0.41943    0.60647    0.12337   1.00
C1       0.18703    0.58057    0.12337   1.00
C1       0.39353    0.81297    0.12337   1.00
C1       0.26670    0.52270    0.06030   1.00
C1       0.47730    0.74400    0.06030   1.00
C1       0.25600    0.73330    0.06030   1.00
O1       0.33333    0.66667    0.74137   1.00
Zn1      0.33333    0.66667    0.71227   1.00
Zn1      0.29047    0.71823    0.75023   1.00
Zn1      0.28177    0.57223    0.75023   1.00
Zn1      0.42777    0.70953    0.75023   1.00
O2       0.30723    0.72807    0.70227   1.00
O2       0.27193    0.57917    0.70227   1.00
O2       0.42083    0.69277    0.70227   1.00
O2       0.26173    0.75367    0.72817   1.00
O2       0.21307    0.66203    0.76743   1.00
O2       0.35257    0.79253    0.76703   1.00
O2       0.24633    0.50807    0.72817   1.00
O2       0.20747    0.56003    0.76703   1.00
O2       0.33797    0.55103    0.76743   1.00
O2       0.49193    0.73827    0.72817   1.00
O2       0.44897    0.78693    0.76743   1.00
O2       0.43997    0.64743    0.76703   1.00
C1       0.27313    0.75277    0.70997   1.00
C1       0.24723    0.52037    0.70997   1.00
C1       0.47963    0.72687    0.70997   1.00
C1       0.18937    0.60003    0.77303   1.00
C1       0.41067    0.81063    0.77303   1.00
C1       0.39997    0.58933    0.77303   1.00
C4       0.86861    0.69949    0.49683   1.00
C4       0.84457    0.64745    0.48165   1.00
C3       0.93320    0.76002    0.49601   1.00
C3       0.88505    0.64778    0.46515   1.00
C3       0.82657    0.69058    0.51400   1.00
C3       0.77629    0.59176    0.48284   1.00
C2       0.91491    0.80073    0.52863   1.00
C2       0.79272    0.53949    0.45183   1.00
C3       0.95591    0.80908    0.51152   1.00
C3       0.85967    0.59563    0.45054   1.00
C3       0.84989    0.74129    0.52930   1.00
C3       0.75266    0.53827    0.46845   1.00
H1       0.96555    0.77034    0.48409   1.00
H1       0.93429    0.68568    0.46332   1.00
C5       0.76140    0.63124    0.51575   1.00
C5       0.73210    0.58934    0.49845   1.00
H1       1.00332    0.85161    0.51018   1.00
H1       0.89107    0.59886    0.43884   1.00
H1       0.81841    0.73509    0.54125   1.00
H1       0.70516    0.49665    0.47025   1.00
O3       0.72602    0.61741    0.53376   1.00
O3       0.66278    0.54385    0.49762   1.00
Si1      0.73309    0.56846    0.55061   1.00
Si1      0.61424    0.56476    0.48485   1.00
C6       0.68808    0.58170    0.57028   1.00
C6       0.68767    0.48413    0.54142   1.00
C6       0.81830    0.59665    0.55771   1.00
C6       0.65330    0.64372    0.47190   1.00
C6       0.57396    0.49806    0.46725   1.00
C6       0.55167    0.56015    0.50169   1.00
C6       0.70851    0.65775    0.57444   1.00
H2       0.63638    0.55773    0.56416   1.00
C6       0.68098    0.54904    0.59179   1.00
H2       0.65063    0.48629    0.53132   1.00
C6       0.72664    0.45732    0.52816   1.00
C6       0.64471    0.42521    0.55675   1.00
H2       0.83808    0.65093    0.56050   1.00
C6       0.83004    0.56708    0.57783   1.00
C6       0.86809    0.59178    0.54207   1.00
C6       0.69761    0.71000    0.48451   1.00
C6       0.69366    0.65175    0.45182   1.00
H2       0.60937    0.64741    0.46682   1.00
H2       0.61482    0.50609    0.45685   1.00
C6       0.54553    0.42420    0.47580   1.00
C6       0.51604    0.49646    0.45392   1.00
H2       0.51376    0.50592    0.50219   1.00
C6       0.57436    0.58022    0.52415   1.00
C6       0.51191    0.59763    0.49566   1.00
H2       0.70449    0.68261    0.56073   1.00
H2       0.76084    0.68716    0.58003   1.00
H2       0.67488    0.66111    0.58570   1.00
H2       0.63185    0.53622    0.59852   1.00
H2       0.68389    0.50258    0.59135   1.00
H2       0.72010    0.58396    0.60234   1.00
H2       0.69077    0.41107    0.51998   1.00
H2       0.75839    0.49412    0.51669   1.00
H2       0.75865    0.44478    0.53750   1.00
H2       0.60790    0.43414    0.56487   1.00
H2       0.61499    0.37637    0.54893   1.00
H2       0.67754    0.41935    0.56773   1.00
H2       0.80175    0.51140    0.57772   1.00
H2       0.88393    0.58363    0.58026   1.00
H2       0.81488    0.58508    0.59101   1.00
H2       0.86543    0.54233    0.54263   1.00
H2       0.85860    0.59988    0.52650   1.00
H2       0.92079    0.63049    0.54548   1.00
H2       0.74930    0.71945    0.48672   1.00
H2       0.70185    0.75445    0.47662   1.00
H2       0.67563    0.70809    0.49934   1.00
H2       0.70628    0.69956    0.44420   1.00
H2       0.74154    0.65279    0.45456   1.00
H2       0.66399    0.61113    0.44099   1.00
H2       0.53221    0.38766    0.46337   1.00
H2       0.58357    0.42045    0.48505   1.00
H2       0.49997    0.40797    0.48502   1.00
H2       0.53212    0.54569    0.44680   1.00
H2       0.50202    0.45915    0.44168   1.00
H2       0.47017    0.48204    0.46285   1.00
H2       0.61454    0.63332    0.52562   1.00
H2       0.53172    0.57214    0.53380   1.00
H2       0.59373    0.54857    0.53018   1.00
H2       0.46802    0.58243    0.50563   1.00
H2       0.54430    0.65295    0.49680   1.00
H2       0.49213    0.58523    0.48023   1.00
C4       0.30795    0.17113    0.49901   1.00
C4       0.35855    0.19713    0.48339   1.00
C3       0.31124    0.13547    0.51629   1.00
C3       0.41409    0.18472    0.48256   1.00
C3       0.25007    0.18007    0.49724   1.00
C3       0.35405    0.23803    0.46767   1.00
C2       0.20186    0.11717    0.52941   1.00
C2       0.45792    0.25024    0.45105   1.00
C3       0.25950    0.10889    0.53102   1.00
C3       0.46278    0.21106    0.46694   1.00
C3       0.19906    0.15397    0.51246   1.00
C3       0.40199    0.26163    0.45160   1.00
H1       0.35143    0.12798    0.51872   1.00
H1       0.42058    0.15585    0.49320   1.00
C5       0.24368    0.21527    0.48034   1.00
C5       0.30149    0.25470    0.46793   1.00
H1       0.26440    0.08312    0.54312   1.00
H1       0.50219    0.20093    0.46722   1.00
H1       0.15878    0.16242    0.51128   1.00
H1       0.39556    0.28714    0.43979   1.00
O3       0.18298    0.21394    0.47694   1.00
O3       0.30383    0.30464    0.45533   1.00
Si1      0.12597    0.15629    0.46192   1.00
Si1      0.34685    0.38408    0.46261   1.00
C6       0.05987    0.17402    0.46703   1.00
C6       0.15618    0.17891    0.43686   1.00
C6       0.10244    0.07209    0.46893   1.00
C6       0.39100    0.40269    0.48596   1.00
C6       0.40546    0.42373    0.44280   1.00
C6       0.29009    0.41599    0.46257   1.00
C6       0.04650    0.18108    0.49000   1.00
H2       0.08019    0.22507    0.46065   1.00
C6       -0.01270   0.13004    0.45732   1.00
H2       0.19011    0.23388    0.43818   1.00
C6       0.20063    0.15026    0.42776   1.00
C6       0.10415    0.16925    0.41976   1.00
H2       0.09351    0.07224    0.48522   1.00
C6       0.03462    0.01307    0.45979   1.00
C6       0.15505    0.04658    0.46633   1.00
C6       0.34917    0.36724    0.50553   1.00
C6       0.45863    0.39992    0.48747   1.00
H2       0.40804    0.45674    0.48793   1.00
H2       0.44052    0.40412    0.44437   1.00
C6       0.37613    0.40422    0.42077   1.00
C6       0.45014    0.50324    0.44335   1.00
H2       0.28795    0.42841    0.44669   1.00
C6       0.21476    0.36457    0.46846   1.00
C6       0.31059    0.48280    0.47481   1.00
H2       0.09276    0.21946    0.49759   1.00
H2       0.02799    0.13276    0.49803   1.00
H2       0.00859    0.19715    0.49178   1.00
H2       -0.03548   0.16191    0.45442   1.00
H2       -0.01155   0.10685    0.44300   1.00
H2       -0.04783   0.08905    0.46734   1.00
H2       0.22771    0.17889    0.41421   1.00
H2       0.23951    0.15460    0.43833   1.00
H2       0.16917    0.09690    0.42335   1.00
H2       0.07687    0.19632    0.42330   1.00
H2       0.13004    0.18996    0.40530   1.00
H2       0.06724    0.11532    0.41740   1.00
H2       0.03454    0.01626    0.44326   1.00
H2       0.02664    -0.03729   0.46382   1.00
H2       -0.00960   0.01411    0.46572   1.00
H2       0.15281    0.02590    0.45121   1.00
H2       0.20744    0.08597    0.46887   1.00
H2       0.14396    0.00579    0.47719   1.00
H2       0.34189    0.31623    0.50742   1.00
H2       0.37601    0.39643    0.51902   1.00
H2       0.29926    0.36329    0.50549   1.00
H2       0.48463    0.42183    0.50182   1.00
H2       0.44951    0.34801    0.48686   1.00
H2       0.49468    0.42938    0.47550   1.00
H2       0.41760    0.42190    0.40972   1.00
H2       0.34504    0.34897    0.41894   1.00
H2       0.34493    0.42677    0.41677   1.00
H2       0.47449    0.52151    0.45808   1.00
H2       0.49101    0.52098    0.43208   1.00
H2       0.41995    0.52741    0.43991   1.00
H2       0.21028    0.34607    0.48397   1.00
H2       0.18221    0.38719    0.46691   1.00
H2       0.19431    0.32076    0.45841   1.00
H2       0.27689    0.50289    0.47110   1.00
H2       0.30721    0.47362    0.49116   1.00
H2       0.36232    0.52292    0.47128   1.00
C4       0.82997    0.13768    0.49892   1.00
C4       0.80380    0.16201    0.48328   1.00
C3       0.87660    0.18035    0.51400   1.00
C3       0.82632    0.23212    0.48004   1.00
C3       0.80952    0.06697    0.49949   1.00
C3       0.75208    0.11407    0.47007   1.00
C2       0.88315    0.08513    0.52944   1.00
C2       0.74944    0.20724    0.45102   1.00
C3       0.90278    0.15492    0.52877   1.00
C3       0.79946    0.25412    0.46448   1.00
C3       0.83553    0.04210    0.51475   1.00
C3       0.72780    0.13747    0.45394   1.00
H1       0.89273    0.23111    0.51473   1.00
H1       0.86319    0.26931    0.48881   1.00
C5       0.76301    0.02153    0.48487   1.00
C5       0.72527    0.04312    0.47287   1.00
H1       0.93673    0.18829    0.53920   1.00
H1       0.81726    0.30542    0.46296   1.00
H1       0.81895    -0.00905   0.51531   1.00
H1       0.69399    0.10282    0.44383   1.00
O3       0.75225    -0.04382   0.48336   1.00
O3       0.66658    -0.00411   0.46302   1.00
Si1      0.79676    -0.06051   0.46726   1.00
Si1      0.59280    -0.02509   0.47307   1.00
C6       0.76871    -0.14477   0.47534   1.00
C6       0.76624    -0.05919   0.44276   1.00
C6       0.88568    -0.00813   0.47045   1.00
C6       0.59153    0.01602    0.49573   1.00
C6       0.55152    -0.00610   0.45376   1.00
C6       0.54885    -0.11416   0.47653   1.00
C6       0.76955    -0.15524   0.49882   1.00
H2       0.71487    -0.17097   0.47111   1.00
C6       0.79841    -0.18788   0.46570   1.00
H2       0.71418    -0.07088   0.44591   1.00
C6       0.80029    0.00979    0.43083   1.00
C6       0.75950    -0.11390   0.42699   1.00
H2       0.89155    -0.01066   0.48683   1.00
C6       0.93250    -0.03260   0.46042   1.00
C6       0.92084    0.06967    0.46485   1.00
C6       0.63115    0.01118    0.51449   1.00
C6       0.60698    0.09159    0.49493   1.00
H2       0.53780    -0.01269   0.50001   1.00
H2       0.57926    0.04950    0.45316   1.00
C6       0.55693    -0.02996   0.43188   1.00
C6       0.47481    -0.02834   0.45712   1.00
H2       0.52785    -0.13444   0.46156   1.00
C6       0.59327    -0.14679   0.48199   1.00
C6       0.48692    -0.14593   0.49152   1.00
H2       0.74026    -0.13628   0.50691   1.00
H2       0.82158    -0.12877   0.50477   1.00
H2       0.74665    -0.20928   0.50264   1.00
H2       0.75911    -0.24176   0.46525   1.00
H2       0.81666    -0.17243   0.45029   1.00
H2       0.84066    -0.18484   0.47454   1.00
H2       0.76819    0.00751    0.41812   1.00
H2       0.80738    0.05226    0.44027   1.00
H2       0.84964    0.02136    0.42463   1.00
H2       0.72753    -0.16553   0.43279   1.00
H2       0.73520    -0.11086   0.41299   1.00
H2       0.80944    -0.10678   0.42296   1.00
H2       0.92139    -0.04278   0.44427   1.00
H2       0.98668    0.00520    0.46198   1.00
H2       0.92645    -0.07828   0.46773   1.00
H2       0.93544    0.07891    0.44889   1.00
H2       0.88917    0.09207    0.46781   1.00
H2       0.96744    0.09866    0.47376   1.00
H2       0.68513    0.04934    0.51388   1.00
H2       0.61099    0.02005    0.52852   1.00
H2       0.62663    -0.03882   0.51583   1.00
H2       0.59485    0.10638    0.50946   1.00
H2       0.66044    0.12748    0.49185   1.00
H2       0.57629    0.09888    0.48354   1.00
H2       0.54017    -0.00604   0.42060   1.00
H2       0.60955    -0.01519   0.42812   1.00
H2       0.52559    -0.08511   0.43012   1.00
H2       0.46645    -0.01193   0.47187   1.00
H2       0.45778    -0.00521   0.44564   1.00
H2       0.44217    -0.08359   0.45596   1.00
H2       0.61944    -0.12838   0.49647   1.00
H2       0.56277    -0.20235   0.48269   1.00
H2       0.63172    -0.13436   0.47038   1.00
H2       0.45789    -0.20145   0.48999   1.00
H2       0.50374    -0.13423   0.50728   1.00
H2       0.45152    -0.12756   0.48853   1.00
C4       0.69940    0.86908    0.00314   1.00
C4       0.64730    0.84491    0.01830   1.00
C3       0.75655    0.93615    0.00292   1.00
C3       0.64385    0.88708    0.03365   1.00
C3       0.69406    0.82446    -0.01294   1.00
C3       0.59554    0.77471    0.01832   1.00
C2       0.80081    0.91513    -0.02861   1.00
C2       0.53941    0.79250    0.04815   1.00
C3       0.80567    0.95870    -0.01257   1.00
C3       0.59177    0.86150    0.04828   1.00
C3       0.74483    0.84779    -0.02822   1.00
C3       0.54190    0.75061    0.03266   1.00
H1       0.76429    0.97050    0.01404   1.00
H1       0.67882    0.93771    0.03458   1.00
C5       0.63820    0.75674    -0.01361   1.00
C5       0.59716    0.72902    0.00393   1.00
H1       0.84564    1.00792    -0.01202   1.00
H1       0.59220    0.89424    0.05913   1.00
H1       0.74132    0.81463    -0.03935   1.00
H1       0.50289    0.70128    0.03167   1.00
O3       0.62710    0.71777    -0.03076   1.00
O3       0.55613    0.65927    0.00610   1.00
Si1      0.57544    0.71598    -0.04835   1.00
Si1      0.58241    0.61820    0.02041   1.00
C6       0.59347    0.67006    -0.06657   1.00
C6       0.49165    0.66714    -0.03896   1.00
C6       0.59696    0.79771    -0.05741   1.00
C6       0.66111    0.66561    0.03319   1.00
C6       0.51651    0.57782    0.03825   1.00
C6       0.58344    0.55462    0.00527   1.00
C6       0.67092    0.69560    -0.07035   1.00
H2       0.57324    0.62024    -0.05934   1.00
C6       0.56012    0.65530    -0.08821   1.00
H2       0.49730    0.63459    -0.02784   1.00
C6       0.46004    0.70459    -0.02712   1.00
C6       0.43421    0.61736    -0.05377   1.00
H2       0.65176    0.82092    -0.06007   1.00
C6       0.56508    0.80141    -0.07813   1.00
C6       0.58723    0.84803    -0.04324   1.00
C6       0.72618    0.71092    0.02021   1.00
C6       0.66569    0.70923    0.05221   1.00
H2       0.66902    0.62552    0.03950   1.00
H2       0.52107    0.61968    0.04759   1.00
C6       0.44213    0.54198    0.02962   1.00
C6       0.52017    0.52587    0.05309   1.00
H2       0.53039    0.51349    0.00515   1.00
C6       0.60234    0.57283    -0.01750   1.00
C6       0.62620    0.52187    0.01282   1.00
H2       0.69718    0.69730    -0.05628   1.00
H2       0.69676    0.74666    -0.07700   1.00
H2       0.67757    0.66147    -0.08063   1.00
H2       0.55132    0.60601    -0.09373   1.00
H2       0.51139    0.65378    -0.08840   1.00
H2       0.59295    0.69322    -0.09937   1.00
H2       0.41510    0.66814    -0.01855   1.00
H2       0.49545    0.74077    -0.01611   1.00
H2       0.44402    0.73158    -0.03746   1.00
H2       0.44696    0.58147    -0.06075   1.00
H2       0.38600    0.58642    -0.04575   1.00
H2       0.42509    0.64538    -0.06568   1.00
H2       0.50962    0.76940    -0.07792   1.00
H2       0.57737    0.85346    -0.08183   1.00
H2       0.58531    0.78571    -0.09065   1.00
H2       0.53589    0.84073    -0.04431   1.00
H2       0.59651    0.84338    -0.02736   1.00
H2       0.62273    0.90080    -0.04761   1.00
H2       0.73125    0.76026    0.01671   1.00
H2       0.77213    0.72093    0.02849   1.00
H2       0.72626    0.68650    0.00600   1.00
H2       0.71437    0.72744    0.06004   1.00
H2       0.66235    0.75405    0.04818   1.00
H2       0.62604    0.67979    0.06332   1.00
H2       0.40521    0.52878    0.04193   1.00
H2       0.43472    0.57552    0.01931   1.00
H2       0.42945    0.49516    0.02147   1.00
H2       0.57002    0.54738    0.06035   1.00
H2       0.48252    0.51190    0.06523   1.00
H2       0.50941    0.47901    0.04527   1.00
H2       0.65400    0.61554    -0.01942   1.00
H2       0.59789    0.52945    -0.02605   1.00
H2       0.56754    0.58681    -0.02441   1.00
H2       0.61445    0.47657    0.00389   1.00
H2       0.68091    0.55750    0.01146   1.00
H2       0.61506    0.50552    0.02859   1.00
C4       0.17111    0.30795    0.00100   1.00
C4       0.19711    0.35855    0.01661   1.00
C3       0.13532    0.31115    -0.01627   1.00
C3       0.18458    0.41400    0.01747   1.00
C3       0.18021    0.25016    0.00273   1.00
C3       0.23817    0.35414    0.03231   1.00
C2       0.11717    0.20186    -0.02941   1.00
C2       0.25024    0.45792    0.04895   1.00
C3       0.10874    0.25942    -0.03100   1.00
C3       0.21092    0.46269    0.03309   1.00
C3       0.15411    0.19914    -0.01249   1.00
C3       0.26178    0.40207    0.04837   1.00
H1       0.12771    0.35128    -0.01868   1.00
H1       0.15559    0.42041    0.00686   1.00
C5       0.21556    0.24385    0.01961   1.00
C5       0.25497    0.30168    0.03202   1.00
H1       0.08286    0.26425    -0.04308   1.00
H1       0.20068    0.50203    0.03283   1.00
H1       0.16267    0.15893    -0.01133   1.00
H1       0.28739    0.39572    0.06016   1.00
O3       0.21439    0.18322    0.02298   1.00
O3       0.30504    0.30413    0.04457   1.00
Si1      0.15689    0.12613    0.03803   1.00
Si1      0.38442    0.34728    0.03726   1.00
C6       0.17476    0.06015    0.03288   1.00
C6       0.17960    0.15635    0.06308   1.00
C6       0.07260    0.10244    0.03106   1.00
C6       0.40282    0.39144    0.01391   1.00
C6       0.42409    0.40592    0.05706   1.00
C6       0.41651    0.29067    0.03726   1.00
C6       0.18173    0.04682    0.00991   1.00
H2       0.22585    0.08057    0.03923   1.00
C6       0.13095    -0.01243   0.04259   1.00
H2       0.23455    0.19038    0.06174   1.00
C6       0.15087    0.20069    0.07222   1.00
C6       0.17014    0.10436    0.08017   1.00
H2       0.07268    0.09352    0.01477   1.00
C6       0.01373    0.03456    0.04022   1.00
C6       0.04696    0.15494    0.03370   1.00
C6       0.36732    0.34957    -0.00564   1.00
C6       0.39989    0.45898    0.01243   1.00
H2       0.45689    0.40858    0.01192   1.00
H2       0.40438    0.44089    0.05552   1.00
C6       0.40476    0.37657    0.07910   1.00
C6       0.50359    0.45073    0.05648   1.00
H2       0.42903    0.28855    0.05313   1.00
C6       0.36517    0.21530    0.03138   1.00
C6       0.48327    0.31129    0.02498   1.00
H2       0.22000    0.09311    0.00230   1.00
H2       0.13335    0.02822    0.00190   1.00
H2       0.19789    0.00899    0.00809   1.00
H2       0.16293    -0.03512   0.04547   1.00
H2       0.10782    -0.01134   0.05693   1.00
H2       0.08993    -0.04762   0.03259   1.00
H2       0.17954    0.22780    0.08575   1.00
H2       0.15506    0.23954    0.06166   1.00
H2       0.09754    0.16915    0.07665   1.00
H2       0.19729    0.07718    0.07661   1.00
H2       0.19090    0.13026    0.09463   1.00
H2       0.11626    0.06737    0.08256   1.00
H2       0.01701    0.03448    0.05675   1.00
H2       -0.03670   0.02648    0.03622   1.00
H2       0.01483    -0.00961   0.03428   1.00
H2       0.02634    0.15265    0.04884   1.00
H2       0.08626    0.20735    0.03115   1.00
H2       0.00609    0.14377    0.02287   1.00
H2       0.31626    0.34218    -0.00750   1.00
H2       0.39641    0.37645    -0.01914   1.00
H2       0.36348    0.29971    -0.00563   1.00
H2       0.42168    0.48500    -0.00193   1.00
H2       0.34794    0.44975    0.01308   1.00
H2       0.42937    0.49505    0.02439   1.00
H2       0.42243    0.41803    0.09015   1.00
H2       0.34953    0.34539    0.08096   1.00
H2       0.42743    0.34546    0.08307   1.00
H2       0.52175    0.47510    0.04174   1.00
H2       0.52132    0.49158    0.06775   1.00
H2       0.52788    0.42063    0.05989   1.00
H2       0.34656    0.21079    0.01588   1.00
H2       0.38789    0.18285    0.03290   1.00
H2       0.32141    0.19477    0.04145   1.00
H2       0.50349    0.27768    0.02866   1.00
H2       0.47399    0.30790    0.00864   1.00
H2       0.52335    0.36306    0.02851   1.00
C4       0.13768    0.82997    0.00108   1.00
C4       0.16201    0.80380    0.01672   1.00
C3       0.18035    0.87659    -0.01400   1.00
C3       0.23212    0.82632    0.01996   1.00
C3       0.06697    0.80952    0.00051   1.00
C3       0.11407    0.75209    0.02993   1.00
C2       0.08513    0.88315    -0.02944   1.00
C2       0.20724    0.74944    0.04898   1.00
C3       0.15492    0.90277    -0.02877   1.00
C3       0.25412    0.79946    0.03552   1.00
C3       0.04210    0.83553    -0.01475   1.00
C3       0.13747    0.72780    0.04606   1.00
H1       0.23111    0.89272    -0.01473   1.00
H1       0.26931    0.86319    0.01119   1.00
C5       0.02153    0.76301    0.01513   1.00
C5       0.04312    0.72528    0.02713   1.00
H1       0.18829    0.93673    -0.03920   1.00
H1       0.30542    0.81726    0.03704   1.00
H1       -0.00905   0.81895    -0.01531   1.00
H1       0.10283    0.69399    0.05617   1.00
O3       -0.04382   0.75226    0.01664   1.00
O3       -0.00411   0.66658    0.03698   1.00
Si1      -0.06050   0.79677    0.03275   1.00
Si1      -0.02510   0.59280    0.02693   1.00
C6       -0.14476   0.76872    0.02466   1.00
C6       -0.05918   0.76625    0.05725   1.00
C6       -0.00812   0.88569    0.02955   1.00
C6       0.01602    0.59153    0.00427   1.00
C6       -0.00610   0.55153    0.04625   1.00
C6       -0.11417   0.54886    0.02348   1.00
C6       -0.15523   0.76956    0.00118   1.00
H2       -0.17096   0.71489    0.02889   1.00
C6       -0.18787   0.79843    0.03430   1.00
H2       -0.07088   0.71419    0.05410   1.00
C6       0.00980    0.80030    0.06917   1.00
C6       -0.11389   0.75951    0.07301   1.00
H2       -0.01065   0.89156    0.01317   1.00
C6       -0.03258   0.93251    0.03958   1.00
C6       0.06968    0.92084    0.03515   1.00
C6       0.01118    0.63115    -0.01449   1.00
C6       0.09158    0.60698    0.00507   1.00
H2       -0.01270   0.53780    -0.00000   1.00
H2       0.04949    0.57927    0.04684   1.00
C6       -0.02996   0.55694    0.06812   1.00
C6       -0.02835   0.47481    0.04289   1.00
H2       -0.13444   0.52785    0.03844   1.00
C6       -0.14679   0.59328    0.01801   1.00
C6       -0.14594   0.48693    0.00848   1.00
H2       -0.13628   0.74026    -0.00690   1.00
H2       -0.12877   0.82159    -0.00477   1.00
H2       -0.20928   0.74666    -0.00264   1.00
H2       -0.24176   0.75913    0.03475   1.00
H2       -0.17242   0.81667    0.04971   1.00
H2       -0.18483   0.84067    0.02547   1.00
H2       0.00752    0.76820    0.08189   1.00
H2       0.05226    0.80738    0.05973   1.00
H2       0.02137    0.84965    0.07537   1.00
H2       -0.16552   0.72754    0.06721   1.00
H2       -0.11085   0.73521    0.08701   1.00
H2       -0.10677   0.80945    0.07704   1.00
H2       -0.04277   0.92140    0.05573   1.00
H2       0.00521    0.98669    0.03802   1.00
H2       -0.07827   0.92646    0.03227   1.00
H2       0.07892    0.93545    0.05111   1.00
H2       0.09207    0.88917    0.03219   1.00
H2       0.09867    0.96745    0.02624   1.00
H2       0.04934    0.68513    -0.01388   1.00
H2       0.02004    0.61099    -0.02852   1.00
H2       -0.03883   0.62663    -0.01583   1.00
H2       0.10637    0.59485    -0.00945   1.00
H2       0.12748    0.66044    0.00815   1.00
H2       0.09888    0.57629    0.01646   1.00
H2       -0.00604   0.54018    0.07940   1.00
H2       -0.01519   0.60956    0.07188   1.00
H2       -0.08511   0.52559    0.06988   1.00
H2       -0.01194   0.46645    0.02813   1.00
H2       -0.00522   0.45778    0.05436   1.00
H2       -0.08360   0.44218    0.04404   1.00
H2       -0.12839   0.61945    0.00354   1.00
H2       -0.20236   0.56277    0.01732   1.00
H2       -0.13436   0.63173    0.02962   1.00
H2       -0.20146   0.45790    0.01001   1.00
H2       -0.13423   0.50374    -0.00728   1.00
H2       -0.12757   0.45153    0.01148   1.00
C4       0.13075    0.30589    0.50155   1.00
C4       0.15497    0.35636    0.51720   1.00
C3       0.06289    0.27295    0.49405   1.00
C3       0.11232    0.37440    0.52817   1.00
C3       0.17620    0.28609    0.49302   1.00
C3       0.22573    0.39126    0.52228   1.00
C2       0.08478    0.20189    0.47058   1.00
C2       0.20759    0.45789    0.54896   1.00
C3       0.04039    0.22212    0.47908   1.00
C3       0.13797    0.42421    0.54348   1.00
C3       0.15285    0.23561    0.47766   1.00
C3       0.25001    0.43918    0.53835   1.00
H1       0.02788    0.28510    0.49920   1.00
H1       0.06129    0.35158    0.52545   1.00
C5       0.24473    0.31705    0.49984   1.00
C5       0.27180    0.37780    0.51145   1.00
H1       -0.00941   0.19973    0.47435   1.00
H1       0.10485    0.43557    0.55078   1.00
H1       0.18653    0.22328    0.47129   1.00
H1       0.29992    0.46051    0.54266   1.00
O3       0.28495    0.29013    0.49411   1.00
O3       0.34151    0.41993    0.51329   1.00
Si1      0.29025    0.23469    0.50871   1.00
Si1      0.37949    0.48818    0.49920   1.00
C6       0.33631    0.21265    0.49169   1.00
C6       0.34038    0.27933    0.52986   1.00
C6       0.21015    0.16342    0.51459   1.00
C6       0.32889    0.50651    0.48283   1.00
C6       0.41986    0.55406    0.51705   1.00
C6       0.44320    0.48311    0.48528   1.00
C6       0.30874    0.19685    0.46938   1.00
H2       0.38524    0.25999    0.49077   1.00
C6       0.35402    0.15578    0.49716   1.00
H2       0.37106    0.33080    0.52380   1.00
C6       0.30373    0.28656    0.54902   1.00
C6       0.39269    0.25942    0.53829   1.00
H2       0.18562    0.14925    0.49972   1.00
C6       0.20963    0.09841    0.52298   1.00
C6       0.15986    0.17248    0.52897   1.00
C6       0.28325    0.45137    0.46686   1.00
C6       0.28418    0.53510    0.49187   1.00
H2       0.36732    0.54914    0.47395   1.00
H2       0.37778    0.55630    0.52434   1.00
C6       0.45857    0.54119    0.53463   1.00
C6       0.46929    0.62732    0.50878   1.00
H2       0.48551    0.50025    0.49595   1.00
C6       0.42676    0.41031    0.47870   1.00
C6       0.47302    0.52942    0.46606   1.00
H2       0.30479    0.23910    0.46286   1.00
H2       0.25833    0.15114    0.46870   1.00
H2       0.34292    0.18885    0.45951   1.00
H2       0.40320    0.16822    0.49055   1.00
H2       0.35734    0.14980    0.51340   1.00
H2       0.31666    0.10599    0.49109   1.00
H2       0.34034    0.32658    0.55907   1.00
H2       0.26592    0.30090    0.54508   1.00
H2       0.27882    0.23922    0.55772   1.00
H2       0.42806    0.26257    0.52653   1.00
H2       0.42407    0.29419    0.55035   1.00
H2       0.36667    0.20791    0.54459   1.00
H2       0.24305    0.11077    0.53614   1.00
H2       0.15849    0.05871    0.52752   1.00
H2       0.22544    0.07490    0.51145   1.00
H2       0.16902    0.16709    0.54493   1.00
H2       0.16260    0.22139    0.52736   1.00
H2       0.10720    0.13346    0.52565   1.00
H2       0.23501    0.41289    0.47340   1.00
H2       0.27096    0.47484    0.45428   1.00
H2       0.30852    0.42561    0.46037   1.00
H2       0.26379    0.55280    0.47976   1.00
H2       0.24073    0.49673    0.50038   1.00
H2       0.31348    0.57886    0.50175   1.00
H2       0.47173    0.57905    0.54666   1.00
H2       0.42692    0.49117    0.54158   1.00
H2       0.50571    0.54420    0.52939   1.00
H2       0.44567    0.64160    0.49677   1.00
H2       0.48325    0.66507    0.52088   1.00
H2       0.51637    0.63153    0.50292   1.00
H2       0.38314    0.38628    0.46848   1.00
H2       0.47025    0.41122    0.47122   1.00
H2       0.41498    0.37794    0.49197   1.00
H2       0.51871    0.52947    0.46065   1.00
H2       0.43618    0.51159    0.45362   1.00
H2       0.48800    0.58230    0.46928   1.00
C4       0.69527    0.82498    0.50189   1.00
C4       0.64467    0.79899    0.51750   1.00
C3       0.74149    0.80095    0.49835   1.00
C3       0.63930    0.75089    0.53227   1.00
C3       0.70114    0.87875    0.48921   1.00
C3       0.59631    0.82182    0.51855   1.00
C2       0.79838    0.88254    0.47066   1.00
C2       0.54184    0.75005    0.54888   1.00
C3       0.79189    0.82915    0.48325   1.00
C3       0.58893    0.72659    0.54742   1.00
C3       0.75149    0.90565    0.47380   1.00
C3       0.54780    0.79891    0.53445   1.00
H1       0.73975    0.76208    0.50660   1.00
H1       0.67209    0.73242    0.53254   1.00
C5       0.65649    0.90510    0.49193   1.00
C5       0.59691    0.86781    0.50385   1.00
H1       0.82421    0.81003    0.48149   1.00
H1       0.58712    0.69139    0.55759   1.00
H1       0.75386    0.94290    0.46446   1.00
H1       0.51637    0.81903    0.53575   1.00
O3       0.66942    0.96402    0.48206   1.00
O3       0.54306    0.87997    0.50214   1.00
Si1      0.71325    1.03757    0.49343   1.00
Si1      0.47713    0.82815    0.48850   1.00
C6       0.72178    1.08925    0.47233   1.00
C6       0.66025    1.04242    0.51215   1.00
C6       0.79355    1.05332    0.50218   1.00
C6       0.47656    0.75698    0.47726   1.00
C6       0.40909    0.79986    0.50569   1.00
C6       0.46642    0.87758    0.46980   1.00
C6       0.74470    1.07067    0.45201   1.00
H2       0.66923    1.07706    0.46975   1.00
C6       0.76460    1.16909    0.47377   1.00
H2       0.60950    1.00773    0.50616   1.00
C6       0.66156    1.01590    0.53396   1.00
C6       0.66258    1.11200    0.51545   1.00
H2       0.81350    1.03988    0.48895   1.00
C6       0.84765    1.12887    0.50752   1.00
C6       0.79737    1.01079    0.52046   1.00
C6       0.53670    0.77037    0.46278   1.00
C6       0.46303    0.69454    0.49078   1.00
H2       0.43158    0.73663    0.46753   1.00
H2       0.41731    0.76729    0.51614   1.00
C6       0.40801    0.85605    0.51928   1.00
C6       0.33533    0.75541    0.49707   1.00
H2       0.43981    0.89983    0.47770   1.00
C6       0.53286    0.93972    0.46144   1.00
C6       0.42168    0.84000    0.45083   1.00
H2       0.71077    1.01744    0.44784   1.00
H2       0.79644    1.07893    0.45321   1.00
H2       0.74368    1.10154    0.43941   1.00
H2       0.74207    1.19185    0.46409   1.00
H2       0.76701    1.18798    0.48908   1.00
H2       0.81699    1.18929    0.46854   1.00
H2       0.61718    1.00814    0.54271   1.00
H2       0.65968    0.96695    0.53367   1.00
H2       0.70703    1.05237    0.54227   1.00
H2       0.65204    1.13054    0.50141   1.00
H2       0.62377    1.10688    0.52632   1.00
H2       0.71213    1.15069    0.52132   1.00
H2       0.82711    1.15055    0.51831   1.00
H2       0.89394    1.13305    0.51412   1.00
H2       0.86466    1.16065    0.49403   1.00
H2       0.79779    1.03366    0.53507   1.00
H2       0.75554    0.95867    0.52084   1.00
H2       0.84433    1.00833    0.51956   1.00
H2       0.58098    0.77677    0.47116   1.00
H2       0.52144    0.72720    0.45250   1.00
H2       0.55260    0.81532    0.45336   1.00
H2       0.45470    0.65132    0.48132   1.00
H2       0.50576    0.70592    0.50072   1.00
H2       0.41741    0.67661    0.50008   1.00
H2       0.37131    0.83261    0.53165   1.00
H2       0.45768    0.88888    0.52627   1.00
H2       0.39381    0.88823    0.51067   1.00
H2       0.33071    0.71335    0.48781   1.00
H2       0.29851    0.73280    0.50946   1.00
H2       0.32021    0.78587    0.48792   1.00
H2       0.56558    0.92418    0.45378   1.00
H2       0.52163    0.96988    0.45084   1.00
H2       0.56179    0.97331    0.47385   1.00
H2       0.41039    0.87415    0.44204   1.00
H2       0.44765    0.82194    0.44076   1.00
H2       0.37280    0.79644    0.45516   1.00
C4       0.17504    0.87024    0.50187   1.00
C4       0.20104    0.84565    0.51749   1.00
C3       0.19978    0.94052    0.49813   1.00
C3       0.24992    0.88853    0.53207   1.00
C3       0.12052    0.82231    0.48940   1.00
C3       0.17740    0.77432    0.51874   1.00
C2       0.11745    0.91581    0.47065   1.00
C2       0.24996    0.79182    0.54889   1.00
C3       0.17156    0.96272    0.48303   1.00
C3       0.27421    0.86247    0.54722   1.00
C3       0.09361    0.84576    0.47400   1.00
C3       0.20033    0.74879    0.53465   1.00
H1       0.23919    0.97765    0.50622   1.00
H1       0.26900    0.93990    0.53218   1.00
C5       0.09345    0.75129    0.49234   1.00
C5       0.13058    0.72875    0.50424   1.00
H1       0.19121    1.01419    0.48112   1.00
H1       0.30999    0.89597    0.55724   1.00
H1       0.05580    0.81083    0.46481   1.00
H1       0.17967    0.69722    0.53611   1.00
O3       0.03395    0.70546    0.48269   1.00
O3       0.11750    0.66239    0.50269   1.00
Si1      -0.03908   0.67701    0.49427   1.00
Si1      0.16826    0.64694    0.48899   1.00
C6       -0.09175   0.63353    0.47337   1.00
C6       -0.04406   0.61950    0.51313   1.00
C6       -0.05349   0.74255    0.50290   1.00
C6       0.23952    0.71660    0.47744   1.00
C6       0.19638    0.60712    0.50621   1.00
C6       0.11767    0.58640    0.47052   1.00
C6       -0.07343   0.67432    0.45292   1.00
H2       -0.08032   0.59262    0.47086   1.00
C6       -0.17149   0.59745    0.47505   1.00
H2       -0.01007   0.60262    0.50711   1.00
C6       -0.01656   0.64794    0.53483   1.00
C6       -0.11398   0.55290    0.51672   1.00
H2       -0.04014   0.77551    0.48958   1.00
C6       -0.12860   0.72224    0.50844   1.00
C6       -0.00996   0.78928    0.52099   1.00
C6       0.22639    0.76335    0.46289   1.00
C6       0.30268    0.76545    0.49073   1.00
H2       0.25903    0.69115    0.46773   1.00
H2       0.22966    0.64811    0.51650   1.00
C6       0.14026    0.55074    0.52003   1.00
C6       0.23978    0.57666    0.49756   1.00
H2       0.09515    0.53780    0.47857   1.00
C6       0.05574    0.59132    0.46228   1.00
C6       0.15419    0.57796    0.45149   1.00
H2       -0.02046   0.69283    0.44860   1.00
H2       -0.08097   0.71826    0.45404   1.00
H2       -0.10498   0.64218    0.44046   1.00
H2       -0.19507   0.55182    0.46552   1.00
H2       -0.18994   0.58168    0.49043   1.00
H2       -0.19126   0.62997    0.46979   1.00
H2       -0.00907   0.61127    0.54363   1.00
H2       0.03269    0.69464    0.53433   1.00
H2       -0.05235   0.65783    0.54318   1.00
H2       -0.13329   0.52337    0.50278   1.00
H2       -0.10899   0.51929    0.52765   1.00
H2       -0.15203   0.56460    0.52264   1.00
H2       -0.15035   0.68042    0.51937   1.00
H2       -0.13192   0.76494    0.51496   1.00
H2       -0.16084   0.70734    0.49505   1.00
H2       -0.03246   0.76755    0.53570   1.00
H2       0.04195    0.79892    0.52125   1.00
H2       -0.00684   0.83899    0.51998   1.00
H2       0.22086    0.80188    0.47120   1.00
H2       0.26927    0.79046    0.45246   1.00
H2       0.18101    0.73440    0.45363   1.00
H2       0.34575    0.79962    0.48111   1.00
H2       0.29219    0.79755    0.50062   1.00
H2       0.32042    0.73765    0.50006   1.00
H2       0.16378    0.53750    0.53239   1.00
H2       0.10816    0.56843    0.52705   1.00
H2       0.10735    0.50419    0.51160   1.00
H2       0.28174    0.61342    0.48814   1.00
H2       0.26247    0.56247    0.50994   1.00
H2       0.20857    0.53085    0.48858   1.00
H2       0.07159    0.63942    0.45447   1.00
H2       0.02483    0.54969    0.45183   1.00
H2       0.02278    0.58757    0.47476   1.00
H2       0.11933    0.53237    0.44288   1.00
H2       0.17240    0.62168    0.44129   1.00
H2       0.19752    0.57214    0.45574   1.00
C4       0.30424    0.13862    0.99787   1.00
C4       0.35622    0.16255    0.98268   1.00
C3       0.29911    0.18161    1.01259   1.00
C3       0.41173    0.23051    0.98184   1.00
C3       0.25495    0.06766    0.99873   1.00
C3       0.35304    0.11651    0.96735   1.00
C2       0.19962    0.08577    1.02873   1.00
C2       0.46016    0.20660    0.95173   1.00
C3       0.24850    0.15591    1.02767   1.00
C3       0.46194    0.25213    0.96668   1.00
C3       0.20352    0.04293    1.01382   1.00
C3       0.40571    0.13855    0.95274   1.00
H1       0.33185    0.23289    1.01275   1.00
H1       0.41756    0.26619    0.99227   1.00
C5       0.25717    0.02190    0.98446   1.00
C5       0.29773    0.04861    0.96678   1.00
H1       0.24762    0.18937    1.03800   1.00
H1       0.50058    0.30203    0.96672   1.00
H1       0.16738    -0.00779   1.01391   1.00
H1       0.40501    0.10387    0.94267   1.00
O3       0.21709    -0.04740   0.98735   1.00
O3       0.28640    0.00759    0.95002   1.00
Si1      0.24813    -0.08924   0.99918   1.00
Si1      0.24316    0.01278    0.93098   1.00
C6       0.17123    -0.16786   1.00100   1.00
C6       0.30609    -0.09503   0.98260   1.00
C6       0.28105    -0.05579   1.02342   1.00
C6       0.21535    0.07303    0.93238   1.00
C6       0.29947    0.03286    0.91047   1.00
C6       0.17318    -0.06952   0.92691   1.00
C6       0.10764    -0.16408   1.00865   1.00
H2       0.16047    -0.18359   0.98514   1.00
C6       0.16824    -0.23000   1.01251   1.00
H2       0.28716    -0.09057   0.96779   1.00
C6       0.38265    -0.03741   0.98328   1.00
C6       0.30775    -0.16328   0.98186   1.00
H2       0.24021    -0.04948   1.02997   1.00
C6       0.29246    -0.10280   1.03844   1.00
C6       0.34819    0.01534    1.02524   1.00
C6       0.16958    0.06855    0.95074   1.00
C6       0.26806    0.15061    0.92933   1.00
H2       0.18239    0.06012    0.91909   1.00
H2       0.33941    0.08516    0.91353   1.00
C6       0.33701    -0.00922   0.90884   1.00
C6       0.27137    0.03312    0.88882   1.00
H2       0.19455    -0.09542   0.91820   1.00
C6       0.14161    -0.11454   0.94615   1.00
C6       0.11173    -0.07631   0.91415   1.00
H2       0.09853    -0.12949   0.99936   1.00
H2       0.11430    -0.14639   1.02435   1.00
H2       0.06128    -0.21397   1.00785   1.00
H2       0.13116    -0.27775   1.00525   1.00
H2       0.21692    -0.22858   1.01269   1.00
H2       0.15183    -0.23317   1.02825   1.00
H2       0.40965    -0.03892   0.96971   1.00
H2       0.38824    0.01318    0.98370   1.00
H2       0.40867    -0.04322   0.99641   1.00
H2       0.25756    -0.20659   0.97841   1.00
H2       0.34189    -0.16209   0.96992   1.00
H2       0.32566    -0.17271   0.99622   1.00
H2       0.32403    -0.12133   1.03157   1.00
H2       0.31733    -0.07625   1.05249   1.00
H2       0.24432    -0.14617   1.04317   1.00
H2       0.39386    0.01066    1.02474   1.00
H2       0.35357    0.05100    1.01345   1.00
H2       0.34896    0.03931    1.03972   1.00
H2       0.19992    0.09412    0.96411   1.00
H2       0.14009    0.09336    0.94705   1.00
H2       0.13315    0.01607    0.95482   1.00
H2       0.24183    0.17989    0.92776   1.00
H2       0.30281    0.17225    0.94211   1.00
H2       0.29825    0.16003    0.91558   1.00
H2       0.37886    0.01439    0.89790   1.00
H2       0.35949    -0.01090   0.92334   1.00
H2       0.30284    -0.06154   0.90393   1.00
H2       0.24592    0.06321    0.88836   1.00
H2       0.31314    0.05581    0.87783   1.00
H2       0.23557    -0.01854   0.88366   1.00
H2       0.12055    -0.09251   0.95660   1.00
H2       0.10126    -0.16594   0.94221   1.00
H2       0.18052    -0.11980   0.95421   1.00
H2       0.07690    -0.12956   0.91010   1.00
H2       0.08250    -0.05803   0.92261   1.00
H2       0.12859    -0.04788   0.89998   1.00
C4       0.82531    0.69601    0.99789   1.00
C4       0.79942    0.64529    0.98231   1.00
C3       0.80996    0.74949    0.99924   1.00
C3       0.76077    0.64656    0.96552   1.00
C3       0.86993    0.69428    1.01287   1.00
C3       0.81239    0.58983    0.98343   1.00
C2       0.88241    0.79860    1.02928   1.00
C2       0.75018    0.54162    0.95118   1.00
C3       0.83800    0.79961    1.01442   1.00
C3       0.73627    0.59583    0.95048   1.00
C3       0.89668    0.74458    1.02829   1.00
C3       0.78974    0.54085    0.96766   1.00
H1       0.77776    0.75345    0.98926   1.00
H1       0.74964    0.68459    0.96366   1.00
C5       0.88732    0.64216    1.01240   1.00
C5       0.84838    0.58381    1.00014   1.00
H1       0.82545    0.83734    1.01455   1.00
H1       0.70809    0.59905    0.93878   1.00
H1       0.92710    0.74160    1.03926   1.00
H1       0.80316    0.50394    0.96801   1.00
O3       0.93882    0.64703    1.02468   1.00
O3       0.84980    0.52432    1.00360   1.00
Si1      1.01658    0.68166    1.01595   1.00
Si1      0.78710    0.46267    1.01611   1.00
C6       1.05659    0.68350    1.03910   1.00
C6       1.01926    0.62331    0.99880   1.00
C6       1.04733    0.76467    1.00626   1.00
C6       0.71866    0.47396    1.02389   1.00
C6       0.75686    0.39359    0.99924   1.00
C6       0.82281    0.44417    1.03721   1.00
C6       1.03600    0.71194    1.05784   1.00
H2       1.03597    0.62933    1.04223   1.00
C6       1.13614    0.71650    1.04051   1.00
H2       0.97737    0.57481    1.00420   1.00
C6       1.00380    0.62793    0.97591   1.00
C6       1.08357    0.61452    0.99877   1.00
H2       1.03354    0.78878    1.01828   1.00
C6       1.12633    0.81025    1.00336   1.00
C6       1.01654    0.77471    0.98605   1.00
C6       0.73519    0.53685    1.03754   1.00
C6       0.66527    0.46883    1.00784   1.00
H2       0.68923    0.42952    1.03355   1.00
H2       0.73281    0.40711    0.98717   1.00
C6       0.81241    0.38281    0.98847   1.00
C6       0.70139    0.32215    1.00730   1.00
H2       0.84144    0.41177    1.03102   1.00
C6       0.88661    0.50573    1.04697   1.00
C6       0.77443    0.40318    1.05521   1.00
H2       0.98087    0.68433    1.06020   1.00
H2       1.05243    0.76594    1.05590   1.00
H2       1.05889    0.70649    1.07180   1.00
H2       1.14927    0.68920    1.05167   1.00
H2       1.15932    0.71536    1.02619   1.00
H2       1.16101    0.76958    1.04549   1.00
H2       0.99277    0.58127    0.96786   1.00
H2       0.95928    0.63377    0.97392   1.00
H2       1.04728    0.67038    0.96841   1.00
H2       1.09323    0.60092    1.01379   1.00
H2       1.07664    0.57330    0.98862   1.00
H2       1.12881    0.66109    0.99370   1.00
H2       1.14654    0.78431    0.99414   1.00
H2       1.14023    0.85881    0.99599   1.00
H2       1.15268    0.82401    1.01785   1.00
H2       1.04271    0.77084    0.97265   1.00
H2       0.96282    0.73827    0.98412   1.00
H2       1.02173    0.82541    0.98579   1.00
H2       0.75143    0.58282    1.02856   1.00
H2       0.68992    0.52789    1.04601   1.00
H2       0.77477    0.54712    1.04864   1.00
H2       0.62140    0.46726    1.01534   1.00
H2       0.68632    0.51228    0.99759   1.00
H2       0.64509    0.42245    0.99878   1.00
H2       0.78990    0.34671    0.97591   1.00
H2       0.85282    0.43041    0.98200   1.00
H2       0.83581    0.36287    0.99883   1.00
H2       0.65925    0.32436    1.01458   1.00
H2       0.67961    0.28579    0.99477   1.00
H2       0.72289    0.30152    1.01814   1.00
H2       0.87512    0.54358    1.05310   1.00
H2       0.90793    0.48938    1.05914   1.00
H2       0.92631    0.53075    1.03563   1.00
H2       0.80002    0.38604    1.06577   1.00
H2       0.75865    0.43432    1.06375   1.00
H2       0.72874    0.35763    1.04993   1.00
C4       0.87023    0.17504    0.99813   1.00
C4       0.84564    0.20105    0.98252   1.00
C3       0.94051    0.20000    1.00194   1.00
C3       0.88857    0.25017    0.96800   1.00
C3       0.82230    0.12031    1.01054   1.00
C3       0.77428    0.17716    0.98121   1.00
C2       0.91580    0.11744    1.02935   1.00
C2       0.79183    0.24997    0.95111   1.00
C3       0.96272    0.17177    1.01703   1.00
C3       0.86251    0.27445    0.95284   1.00
C3       0.84574    0.09339    1.02594   1.00
C3       0.74877    0.20011    0.96529   1.00
H1       0.97764    0.23956    0.99390   1.00
H1       0.93996    0.26943    0.96793   1.00
C5       0.75127    0.09302    1.00754   1.00
C5       0.72864    0.13009    0.99565   1.00
H1       1.01419    0.19159    1.01899   1.00
H1       0.89603    0.31040    0.94286   1.00
H1       0.81080    0.05542    1.03509   1.00
H1       0.69719    0.17928    0.96379   1.00
O3       0.70549    0.03334    1.01712   1.00
O3       0.66218    0.11674    0.99714   1.00
Si1      0.67743    -0.03952   1.00548   1.00
Si1      0.64633    0.16717    1.01087   1.00
C6       0.63385    -0.09249   1.02632   1.00
C6       0.62002    -0.04455   0.98658   1.00
C6       0.74327    -0.05353   0.99688   1.00
C6       0.71570    0.23845    1.02250   1.00
C6       0.60650    0.19524    0.99363   1.00
C6       0.58568    0.11623    1.02926   1.00
C6       0.67442    -0.07426   1.04680   1.00
H2       0.59277    -0.08129   1.02880   1.00
C6       0.59805    -0.17220   1.02456   1.00
H2       0.60289    -0.01076   0.99260   1.00
C6       0.64864    -0.01675   0.96491   1.00
C6       0.55362    -0.11456   0.98290   1.00
H2       0.77609    -0.04020   1.01023   1.00
C6       0.72329    -0.12851   0.99128   1.00
C6       0.79011    -0.00970   0.97884   1.00
C6       0.76245    0.22540    1.03708   1.00
C6       0.76453    0.30184    1.00928   1.00
H2       0.69001    0.25771    1.03220   1.00
H2       0.64754    0.22874    0.98339   1.00
C6       0.55039    0.13915    0.97974   1.00
C6       0.57568    0.23833    1.00228   1.00
H2       0.53716    0.09364    1.02116   1.00
C6       0.59079    0.05438    1.03747   1.00
C6       0.57685    0.15244    1.04831   1.00
H2       0.69270    -0.02137   1.05117   1.00
H2       0.71851    -0.08157   1.04571   1.00
H2       0.64222    -0.10601   1.05922   1.00
H2       0.55233    -0.19603   1.03404   1.00
H2       0.58250    -0.19051   1.00916   1.00
H2       0.63067    -0.19184   1.02983   1.00
H2       0.61195    -0.00934   0.95609   1.00
H2       0.69522    0.03260    0.96547   1.00
H2       0.65880    -0.05232   0.95655   1.00
H2       0.52395    -0.13411   0.99680   1.00
H2       0.52004    -0.10961   0.97194   1.00
H2       0.56558    -0.15241   0.97696   1.00
H2       0.68160    -0.15027   0.98031   1.00
H2       0.76617    -0.13156   0.98479   1.00
H2       0.70836    -0.16088   1.00465   1.00
H2       0.76858    -0.03209   0.96411   1.00
H2       0.79954    0.04214    0.97862   1.00
H2       0.83990    -0.00638   0.97989   1.00
H2       0.80118    0.22015    1.02879   1.00
H2       0.78932    0.26820    1.04754   1.00
H2       0.73353    0.17990    1.04629   1.00
H2       0.79848    0.34486    1.01895   1.00
H2       0.79685    0.29161    0.99940   1.00
H2       0.73669    0.31951    0.99994   1.00
H2       0.53716    0.16269    0.96738   1.00
H2       0.56834    0.10727    0.97271   1.00
H2       0.50379    0.10602    0.98812   1.00
H2       0.61224    0.28026    1.01175   1.00
H2       0.56150    0.26103    0.98991   1.00
H2       0.52982    0.20689    1.01121   1.00
H2       0.63883    0.07032    1.04531   1.00
H2       0.54908    0.02324    1.04787   1.00
H2       0.58731    0.02160    1.02497   1.00
H2       0.53122    0.11737    1.05687   1.00
H2       0.62047    0.17069    1.05855   1.00
H2       0.57088    0.19570    1.04407   1.00
C4       0.52986    1.02537    0.83234   1.00
C4       0.50526    0.97477    0.81672   1.00
C3       0.49105    1.02194    0.84967   1.00
C3       0.43740    0.91906    0.81594   1.00
C3       0.59656    1.08341    0.83053   1.00
C3       0.55057    0.97945    0.80094   1.00
C2       0.58199    1.13147    0.86274   1.00
C2       0.45898    0.87541    0.78438   1.00
C3       0.51619    1.07368    0.86440   1.00
C3       0.41504    0.87037    0.80033   1.00
C3       0.62148    1.13443    0.84574   1.00
C3       0.52622    0.93151    0.78488   1.00
H1       0.44346    0.98162    0.85214   1.00
H1       0.40210    0.91244    0.82662   1.00
C5       0.63803    1.08997    0.81357   1.00
C5       0.61972    1.03220    0.80115   1.00
H1       0.48562    1.06866    0.87653   1.00
H1       0.36557    0.83084    0.80064   1.00
H1       0.67013    1.17483    0.84453   1.00
H1       0.55806    0.93805    0.77303   1.00
O3       0.69723    1.15079    0.81014   1.00
O3       0.66730    1.03006    0.78849   1.00
Si1      0.69619    1.20767    0.79515   1.00
Si1      0.70406    0.98729    0.79570   1.00
C6       0.77997    1.27399    0.80019   1.00
C6       0.68844    1.17748    0.77009   1.00
C6       0.63536    1.23089    0.80225   1.00
C6       0.67891    0.94313    0.81906   1.00
C6       0.68509    0.92872    0.77588   1.00
C6       0.79268    1.04431    0.79558   1.00
C6       0.80064    1.28743    0.82314   1.00
H2       0.81077    1.25384    0.79376   1.00
C6       0.80820    1.34652    0.79049   1.00
H2       0.70967    1.14371    0.77135   1.00
C6       0.61527    1.13281    0.76105   1.00
C6       0.73048    1.22957    0.75296   1.00
H2       0.64460    1.23985    0.81853   1.00
C6       0.64379    1.29860    0.79314   1.00
C6       0.55726    1.17805    0.79971   1.00
C6       0.68533    0.98491    0.83864   1.00
C6       0.60867    0.87535    0.82061   1.00
H2       0.71610    0.92629    0.82096   1.00
H2       0.63048    0.89350    0.77750   1.00
C6       0.69457    0.95802    0.75385   1.00
C6       0.72019    0.88428    0.77636   1.00
H2       0.80708    1.04650    0.77968   1.00
C6       0.81638    1.11958    0.80149   1.00
C6       0.83931    1.02406    0.80775   1.00
H2       0.79302    1.24124    0.83072   1.00
H2       0.77077    1.30577    0.83122   1.00
H2       0.85458    1.32548    0.82488   1.00
H2       0.86284    1.36948    0.78753   1.00
H2       0.78366    1.34526    0.77620   1.00
H2       0.80228    1.38156    0.80054   1.00
H2       0.61678    1.10579    0.74748   1.00
H2       0.58094    1.09387    0.77164   1.00
H2       0.59313    1.16410    0.75668   1.00
H2       0.78487    1.25703    0.75644   1.00
H2       0.72525    1.20371    0.73849   1.00
H2       0.71325    1.26633    0.75064   1.00
H2       0.64689    1.29869    0.77661   1.00
H2       0.60132    1.30638    0.79723   1.00
H2       0.68902    1.34292    0.79904   1.00
H2       0.53861    1.18020    0.78462   1.00
H2       0.54450    1.12572    0.80225   1.00
H2       0.52757    1.18900    0.81062   1.00
H2       0.64151    0.99199    0.84059   1.00
H2       0.68795    0.95814    0.85211   1.00
H2       0.73119    1.03492    0.83857   1.00
H2       0.60484    0.84939    0.83496   1.00
H2       0.56574    0.88427    0.82006   1.00
H2       0.60209    0.83934    0.80863   1.00
H2       0.67079    0.91653    0.74281   1.00
H2       0.67020    0.98894    0.75207   1.00
H2       0.74826    0.98938    0.74980   1.00
H2       0.71437    0.85996    0.79108   1.00
H2       0.69707    0.84340    0.76509   1.00
H2       0.77451    0.91464    0.77286   1.00
H2       0.80247    1.12399    0.81701   1.00
H2       0.87150    1.15230    0.79988   1.00
H2       0.79278    1.13989    0.79148   1.00
H2       0.89303    1.05792    0.80399   1.00
H2       0.83365    1.02741    0.82410   1.00
H2       0.82786    0.97238    0.80420   1.00
C4       -0.02562   0.50336    0.83225   1.00
C4       0.02488    0.52953    0.81661   1.00
C3       -0.02958   0.45673    0.84733   1.00
C3       0.07247    0.50701    0.81337   1.00
C3       -0.07587   0.52381    0.83282   1.00
C3       0.02866    0.58125    0.80340   1.00
C2       -0.13135   0.45018    0.86277   1.00
C2       0.12447    0.58389    0.78435   1.00
C3       -0.08119   0.43055    0.86210   1.00
C3       0.12132    0.53387    0.79781   1.00
C3       -0.12676   0.49780    0.84808   1.00
C3       0.07635    0.60553    0.78727   1.00
H1       0.00505    0.44060    0.84806   1.00
H1       0.07278    0.47013    0.82214   1.00
C5       -0.07480   0.57033    0.81820   1.00
C5       -0.01547   0.60806    0.80620   1.00
H1       -0.08177   0.39659    0.87252   1.00
H1       0.15482    0.51606    0.79629   1.00
H1       -0.16132   0.51439    0.84864   1.00
H1       0.07551    0.63935    0.77716   1.00
O3       -0.12939   0.58109    0.81669   1.00
O3       -0.00400   0.66676    0.79635   1.00
Si1      -0.19059   0.53659    0.80059   1.00
Si1      0.04879    0.74054    0.80641   1.00
C6       -0.24680   0.56464    0.80867   1.00
C6       -0.15875   0.56711    0.77609   1.00
C6       -0.22713   0.44766    0.80378   1.00
C6       0.09117    0.74180    0.82906   1.00
C6       0.10906    0.78182    0.78709   1.00
C6       0.00367    0.78449    0.80986   1.00
C6       -0.25811   0.56379    0.83216   1.00
H2       -0.21915   0.61848    0.80445   1.00
C6       -0.31961   0.53494    0.79904   1.00
H2       -0.11838   0.61917    0.77924   1.00
C6       -0.12383   0.53306    0.76416   1.00
C6       -0.20672   0.57386    0.76032   1.00
H2       -0.23554   0.44179    0.82016   1.00
C6       -0.29842   0.40085    0.79375   1.00
C6       -0.18450   0.41251    0.79818   1.00
C6       0.04672    0.70218    0.84783   1.00
C6       0.15128    0.72634    0.82826   1.00
H2       0.11619    0.79552    0.83334   1.00
H2       0.13691    0.75407    0.78649   1.00
C6       0.07979    0.77641    0.76522   1.00
C6       0.16354    0.85852    0.79045   1.00
H2       0.00440    0.80550    0.79490   1.00
C6       -0.07337   0.74007    0.81533   1.00
C6       0.03384    0.84642    0.82486   1.00
H2       -0.20986   0.59309    0.84024   1.00
H2       -0.28367   0.51177    0.83810   1.00
H2       -0.28924   0.58670    0.83598   1.00
H2       -0.33419   0.57424    0.79859   1.00
H2       -0.32241   0.51670    0.78363   1.00
H2       -0.35881   0.49270    0.80787   1.00
H2       -0.09400   0.56516    0.75145   1.00
H2       -0.08844   0.52597    0.77361   1.00
H2       -0.16160   0.48371    0.75796   1.00
H2       -0.22638   0.60583    0.76612   1.00
H2       -0.17938   0.59816    0.74632   1.00
H2       -0.24954   0.52392    0.75629   1.00
H2       -0.29749   0.41197    0.77760   1.00
H2       -0.31481   0.34667    0.79531   1.00
H2       -0.33806   0.40691    0.80107   1.00
H2       -0.18986   0.39790    0.78222   1.00
H2       -0.13043   0.44417    0.80114   1.00
H2       -0.20211   0.36590    0.80709   1.00
H2       0.03089    0.64820    0.84721   1.00
H2       0.07574    0.72233    0.86186   1.00
H2       0.00123    0.70670    0.84916   1.00
H2       0.17821    0.73847    0.84279   1.00
H2       0.13372    0.67289    0.82519   1.00
H2       0.18927    0.75703    0.81687   1.00
H2       0.12048    0.79317    0.75393   1.00
H2       0.04194    0.72379    0.76145   1.00
H2       0.05599    0.80776    0.76345   1.00
H2       0.18831    0.86689    0.80521   1.00
H2       0.20369    0.87556    0.77897   1.00
H2       0.14092    0.89117    0.78929   1.00
H2       -0.08114   0.71390    0.82980   1.00
H2       -0.09843   0.77058    0.81602   1.00
H2       -0.09940   0.70162    0.80372   1.00
H2       0.00735    0.87545    0.82333   1.00
H2       0.02873    0.82960    0.84062   1.00
H2       0.08761    0.88181    0.82186   1.00
C4       0.49661    0.47098    0.83226   1.00
C4       0.47044    0.49532    0.81661   1.00
C3       0.54295    0.51359    0.84740   1.00
C3       0.49270    0.56542    0.81345   1.00
C3       0.47646    0.40035    0.83275   1.00
C3       0.41901    0.44742    0.80333   1.00
C2       0.54981    0.41845    0.86277   1.00
C2       0.41612    0.54058    0.78435   1.00
C3       0.56914    0.48817    0.86217   1.00
C3       0.46586    0.58742    0.79788   1.00
C3       0.50247    0.37548    0.84801   1.00
C3       0.39475    0.47085    0.78720   1.00
H1       0.55885    0.56429    0.84818   1.00
H1       0.52937    0.60258    0.82227   1.00
C5       0.43025    0.35498    0.81806   1.00
C5       0.39246    0.37648    0.80606   1.00
H1       0.60288    0.52149    0.87265   1.00
H1       0.48346    0.63870    0.79642   1.00
H1       0.48611    0.32437    0.84852   1.00
H1       0.36115    0.43625    0.77704   1.00
O3       0.41982    0.28976    0.81649   1.00
O3       0.33397    0.32920    0.79612   1.00
Si1      0.46472    0.27355    0.80041   1.00
Si1      0.25999    0.30776    0.80611   1.00
C6       0.43693    0.18926    0.80840   1.00
C6       0.43443    0.27503    0.77589   1.00
C6       0.55356    0.32621    0.80371   1.00
C6       0.25823    0.34847    0.82880   1.00
C6       0.21875    0.32675    0.78678   1.00
C6       0.21635    0.21865    0.80946   1.00
C6       0.43754    0.17852    0.83188   1.00
H2       0.38315    0.16291    0.80412   1.00
C6       0.46705    0.14654    0.79876   1.00
H2       0.38226    0.26306    0.77899   1.00
C6       0.46836    0.34416    0.76404   1.00
C6       0.42815    0.22063    0.76008   1.00
H2       0.55926    0.32350    0.82009   1.00
C6       0.60075    0.30217    0.79369   1.00
C6       0.58848    0.40406    0.79820   1.00
C6       0.29773    0.34360    0.84758   1.00
C6       0.27334    0.42393    0.82807   1.00
H2       0.20446    0.31950    0.83301   1.00
H2       0.24629    0.38235    0.78624   1.00
C6       0.22458    0.30326    0.76489   1.00
C6       0.14192    0.30413    0.79007   1.00
H2       0.19558    0.19851    0.79446   1.00
C6       0.26098    0.18626    0.81493   1.00
C6       0.15423    0.18645    0.82439   1.00
H2       0.40797    0.19717    0.83996   1.00
H2       0.48948    0.20510    0.83789   1.00
H2       0.41480    0.12445    0.83564   1.00
H2       0.42793    0.09260    0.79824   1.00
H2       0.48546    0.16224    0.78337   1.00
H2       0.50927    0.14967    0.80762   1.00
H2       0.43635    0.34189    0.75130   1.00
H2       0.47513    0.38643    0.77352   1.00
H2       0.51785    0.35603    0.75789   1.00
H2       0.39628    0.16889    0.76581   1.00
H2       0.40394    0.22372    0.74606   1.00
H2       0.47823    0.22803    0.75608   1.00
H2       0.58986    0.29217    0.77753   1.00
H2       0.65485    0.34012    0.79532   1.00
H2       0.59482    0.25647    0.80097   1.00
H2       0.60328    0.41356    0.78225   1.00
H2       0.55658    0.42620    0.80115   1.00
H2       0.63494    0.43310    0.80716   1.00
H2       0.35167    0.38195    0.84704   1.00
H2       0.27731    0.35216    0.86161   1.00
H2       0.29345    0.29368    0.84888   1.00
H2       0.26092    0.43844    0.84259   1.00
H2       0.32679    0.46005    0.82506   1.00
H2       0.24268    0.43120    0.81666   1.00
H2       0.20779    0.32718    0.75361   1.00
H2       0.27730    0.31831    0.76117   1.00
H2       0.19345    0.24812    0.76306   1.00
H2       0.13327    0.32026    0.80483   1.00
H2       0.12487    0.32726    0.77859   1.00
H2       0.10950    0.24886    0.78884   1.00
H2       0.28694    0.20457    0.82944   1.00
H2       0.23067    0.13068    0.81556   1.00
H2       0.29961    0.19901    0.80336   1.00
H2       0.12543    0.13095    0.82279   1.00
H2       0.17083    0.19801    0.84017   1.00
H2       0.11869    0.20464    0.82138   1.00
C4       0.36417    0.20430    0.33588   1.00
C4       0.31197    0.17920    0.35102   1.00
C3       0.38862    0.26786    0.32588   1.00
C3       0.27475    0.21212    0.35633   1.00
C3       0.39321    0.16354    0.33008   1.00
C3       0.29570    0.11789    0.36160   1.00
C2       0.46748    0.24992    0.30471   1.00
C2       0.20608    0.12437    0.38149   1.00
C3       0.43856    0.28990    0.31064   1.00
C3       0.22370    0.18584    0.37128   1.00
C3       0.44445    0.18727    0.31494   1.00
C3       0.24210    0.09072    0.37598   1.00
H1       0.37102    0.30010    0.32942   1.00
H1       0.28333    0.25593    0.34941   1.00
C5       0.37108    0.09948    0.33950   1.00
C5       0.33249    0.08366    0.35765   1.00
H1       0.45389    0.33612    0.30383   1.00
H1       0.19887    0.21214    0.37461   1.00
H1       0.46616    0.15835    0.31134   1.00
H1       0.22815    0.04456    0.38248   1.00
O3       0.39063    0.05553    0.33159   1.00
O3       0.32713    0.03259    0.37034   1.00
Si1      0.34142    -0.00285   0.31532   1.00
Si1      0.37511    0.05357    0.39053   1.00
C6       0.39898    -0.03089   0.30878   1.00
C6       0.27094    -0.06608   0.32885   1.00
C6       0.32062    0.03055    0.29405   1.00
C6       0.42973    0.14116    0.39568   1.00
C6       0.31572    0.01648    0.41030   1.00
C6       0.42252    0.01132    0.38910   1.00
C6       0.47367    0.02655    0.30384   1.00
H2       0.40272    -0.05392   0.32293   1.00
C6       0.38058    -0.08678   0.29205   1.00
H2       0.29177    -0.06009   0.34413   1.00
C6       0.20620    -0.05860   0.33105   1.00
C6       0.24304    -0.14265   0.32318   1.00
H2       0.37032    0.07311    0.28966   1.00
C6       0.29219    -0.01631   0.27487   1.00
C6       0.27184    0.06070    0.29670   1.00
C6       0.48276    0.18573    0.37909   1.00
C6       0.39899    0.18477    0.40409   1.00
H2       0.46008    0.13974    0.40833   1.00
H2       0.29081    0.04706    0.41090   1.00
C6       0.25694    -0.05857   0.40674   1.00
C6       0.34426    0.01868    0.43205   1.00
H2       0.38710    -0.04025   0.39438   1.00
C6       0.44421    0.00184    0.36744   1.00
C6       0.48757    0.03798    0.40273   1.00
H2       0.49567    0.06308    0.31628   1.00
H2       0.47531    0.05460    0.29016   1.00
H2       0.50713    0.00528    0.30149   1.00
H2       0.40333    -0.11811   0.29581   1.00
H2       0.32599    -0.12081   0.29042   1.00
H2       0.40043    -0.06461   0.27715   1.00
H2       0.17290    -0.09180   0.34308   1.00
H2       0.21913    -0.00696   0.33515   1.00
H2       0.17655    -0.07274   0.31704   1.00
H2       0.28292    -0.15619   0.32411   1.00
H2       0.20293    -0.17673   0.33366   1.00
H2       0.22142    -0.15371   0.30791   1.00
H2       0.24831    -0.06573   0.27873   1.00
H2       0.27630    0.00664    0.26301   1.00
H2       0.33102    -0.02436   0.26786   1.00
H2       0.21823    0.02162    0.29527   1.00
H2       0.27744    0.08561    0.31118   1.00
H2       0.28233    0.09889    0.28498   1.00
H2       0.46019    0.20300    0.36762   1.00
H2       0.52502    0.23135    0.38590   1.00
H2       0.50475    0.15855    0.37148   1.00
H2       0.43958    0.23473    0.40917   1.00
H2       0.36982    0.19397    0.39268   1.00
H2       0.36620    0.16104    0.41721   1.00
H2       0.21678    -0.07290   0.41809   1.00
H2       0.23311    -0.06437   0.39190   1.00
H2       0.27503    -0.09500   0.40773   1.00
H2       0.38446    0.06993    0.43611   1.00
H2       0.30383    0.00336    0.44337   1.00
H2       0.36441    -0.01604   0.43339   1.00
H2       0.47807    0.05045    0.36012   1.00
H2       0.46979    -0.02821   0.36778   1.00
H2       0.39938    -0.02553   0.35794   1.00
H2       0.50618    0.00176    0.40283   1.00
H2       0.52895    0.08676    0.39724   1.00
H2       0.47704    0.04449    0.41845   1.00
C4       0.83605    0.63387    0.33649   1.00
C4       0.86402    0.68595    0.35166   1.00
C3       0.84286    0.57486    0.33684   1.00
C3       0.90675    0.68733    0.36764   1.00
C3       0.80003    0.64118    0.31981   1.00
C3       0.84866    0.73986    0.35102   1.00
C2       0.78091    0.53256    0.30471   1.00
C2       0.91984    0.79388    0.38149   1.00
C3       0.81641    0.52577    0.32134   1.00
C3       0.93339    0.73944    0.38226   1.00
C3       0.77262    0.59045    0.30452   1.00
C3       0.87839    0.79342    0.36538   1.00
H1       0.86704    0.56570    0.34840   1.00
H1       0.92012    0.65075    0.36906   1.00
C5       0.79137    0.69896    0.31854   1.00
C5       0.80428    0.74045    0.33596   1.00
H1       0.82334    0.48440    0.32233   1.00
H1       0.96352    0.73748    0.39357   1.00
H1       0.74528    0.59543    0.29294   1.00
H1       0.87042    0.83387    0.36395   1.00
O3       0.76686    0.71158    0.30092   1.00
O3       0.77812    0.78390    0.33740   1.00
Si1      0.82013    0.76187    0.28370   1.00
Si1      0.70953    0.76045    0.35091   1.00
C6       0.75917    0.74646    0.26469   1.00
C6       0.85721    0.84600    0.29297   1.00
C6       0.87874    0.73677    0.27569   1.00
C6       0.67358    0.68151    0.36381   1.00
C6       0.73552    0.82679    0.36862   1.00
C6       0.64842    0.76249    0.33484   1.00
C6       0.70522    0.66970    0.26072   1.00
H2       0.73051    0.76869    0.27132   1.00
C6       0.78156    0.77952    0.24309   1.00
H2       0.81840    0.84219    0.30355   1.00
C6       0.92459    0.87502    0.30558   1.00
C6       0.86934    0.90432    0.27786   1.00
H2       0.84556    0.68222    0.27297   1.00
C6       0.91747    0.76749    0.25527   1.00
C6       0.93597    0.74386    0.29066   1.00
C6       0.65264    0.61577    0.35103   1.00
C6       0.70905    0.67502    0.38341   1.00
H2       0.62571    0.67585    0.36946   1.00
H2       0.77046    0.82033    0.37853   1.00
C6       0.77781    0.90097    0.36000   1.00
C6       0.67943    0.82591    0.38265   1.00
H2       0.66270    0.81622    0.33450   1.00
C6       0.64954    0.74301    0.31222   1.00
C6       0.57187    0.72252    0.34159   1.00
H2       0.67829    0.64414    0.27462   1.00
H2       0.72927    0.64194    0.25464   1.00
H2       0.66643    0.66485    0.24991   1.00
H2       0.74324    0.79050    0.23692   1.00
H2       0.82998    0.82707    0.24323   1.00
H2       0.78621    0.74557    0.23226   1.00
H2       0.93408    0.92068    0.31393   1.00
H2       0.92223    0.83880    0.31685   1.00
H2       0.96850    0.88921    0.29576   1.00
H2       0.82220    0.89363    0.27026   1.00
H2       0.88760    0.95288    0.28576   1.00
H2       0.90739    0.91173    0.26643   1.00
H2       0.94306    0.82312    0.25541   1.00
H2       0.95600    0.75292    0.25225   1.00
H2       0.88300    0.74848    0.24238   1.00
H2       0.98153    0.79423    0.28985   1.00
H2       0.92003    0.73517    0.30638   1.00
H2       0.95153    0.70662    0.28681   1.00
H2       0.69590    0.60835    0.34822   1.00
H2       0.61436    0.57057    0.35911   1.00
H2       0.63050    0.61680    0.33647   1.00
H2       0.67601    0.62675    0.39114   1.00
H2       0.75658    0.67602    0.38007   1.00
H2       0.71964    0.71519    0.39437   1.00
H2       0.80127    0.93768    0.37237   1.00
H2       0.81928    0.90645    0.35025   1.00
H2       0.74620    0.91559    0.35127   1.00
H2       0.64847    0.77633    0.38986   1.00
H2       0.70289    0.86337    0.39485   1.00
H2       0.64577    0.83867    0.37423   1.00
H2       0.63847    0.69054    0.31056   1.00
H2       0.61291    0.74944    0.30308   1.00
H2       0.69960    0.77616    0.30577   1.00
H2       0.54087    0.73615    0.33209   1.00
H2       0.55071    0.66744    0.34036   1.00
H2       0.56546    0.73430    0.35718   1.00
C4       0.79760    0.16367    0.33647   1.00
C4       0.82177    0.13573    0.35163   1.00
C3       0.73057    0.15385    0.33627   1.00
C3       0.77962    0.09020    0.36701   1.00
C3       0.84218    0.20283    0.32037   1.00
C3       0.89194    0.15408    0.35162   1.00
C2       0.75155    0.21901    0.30472   1.00
C2       0.87416    0.08024    0.38148   1.00
C3       0.70801    0.18041    0.32078   1.00
C3       0.80519    0.06370    0.38164   1.00
C3       0.81885    0.23027    0.30509   1.00
C3       0.91603    0.12452    0.36597   1.00
H1       0.69625    0.12732    0.34741   1.00
H1       0.72901    0.07462    0.36795   1.00
C5       0.90986    0.21459    0.31968   1.00
C5       0.93760    0.20128    0.33722   1.00
H1       0.65883    0.17124    0.32135   1.00
H1       0.77247    0.03146    0.39250   1.00
H1       0.85198    0.25984    0.29395   1.00
H1       0.96533    0.13476    0.36496   1.00
O3       0.94877    0.24235    0.30251   1.00
O3       1.00735    0.22992    0.33936   1.00
Si1      0.95039    0.19235    0.28494   1.00
Si1      1.04857    0.29731    0.35364   1.00
C6       0.99631    0.25621    0.26669   1.00
C6       0.99918    0.15733    0.29432   1.00
C6       0.86860    0.13219    0.27591   1.00
C6       1.00130    0.32876    0.36643   1.00
C6       1.08895    0.27178    0.37148   1.00
C6       1.11214    0.36181    0.33847   1.00
C6       0.97086    0.30818    0.26290   1.00
H2       1.04617    0.28577    0.27390   1.00
C6       1.01093    0.23748    0.24505   1.00
H2       1.03182    0.19556    0.30542   1.00
C6       0.96169    0.08833    0.30619   1.00
C6       1.04884    0.14952    0.27950   1.00
H2       0.84545    0.16384    0.27324   1.00
C6       0.86475    0.09651    0.25519   1.00
C6       0.81828    0.07224    0.29011   1.00
C6       0.95601    0.34856    0.35346   1.00
C6       0.95774    0.28985    0.38546   1.00
H2       1.04147    0.37676    0.37272   1.00
H2       1.04710    0.23456    0.38084   1.00
C6       1.12466    0.23311    0.36285   1.00
C6       1.14101    0.32740    0.38630   1.00
H2       1.15321    0.34980    0.33835   1.00
C6       1.09385    0.36243    0.31571   1.00
C6       1.14502    0.43735    0.34599   1.00
H2       0.96927    0.33283    0.27696   1.00
H2       0.91978    0.28300    0.25627   1.00
H2       1.00499    0.34890    0.25261   1.00
H2       1.06023    0.27791    0.23951   1.00
H2       1.01237    0.19023    0.24486   1.00
H2       0.97299    0.23241    0.23390   1.00
H2       0.99814    0.07980    0.31475   1.00
H2       0.92560    0.08767    0.31721   1.00
H2       0.93461    0.04528    0.29587   1.00
H2       1.08475    0.19812    0.27250   1.00
H2       1.07975    0.13221    0.28752   1.00
H2       1.02073    0.11234    0.26760   1.00
H2       0.89669    0.07298    0.25540   1.00
H2       0.81266    0.05678    0.25152   1.00
H2       0.88044    0.13238    0.24266   1.00
H2       0.82550    0.02815    0.28904   1.00
H2       0.82302    0.08624    0.30598   1.00
H2       0.76550    0.05502    0.28576   1.00
H2       0.90662    0.30433    0.34998   1.00
H2       0.94610    0.38458    0.36173   1.00
H2       0.98039    0.37299    0.33923   1.00
H2       0.93963    0.32040    0.39329   1.00
H2       0.91286    0.24170    0.38147   1.00
H2       0.98718    0.27962    0.39658   1.00
H2       1.13785    0.20939    0.37516   1.00
H2       1.09103    0.19214    0.35256   1.00
H2       1.17146    0.26717    0.35468   1.00
H2       1.11959    0.35583    0.39355   1.00
H2       1.15498    0.30374    0.39844   1.00
H2       1.18786    0.36343    0.37845   1.00
H2       1.05118    0.37146    0.31380   1.00
H2       1.13722    0.40128    0.30714   1.00
H2       1.07977    0.31361    0.30881   1.00
H2       1.19030    0.47082    0.33705   1.00
H2       1.10945    0.45651    0.34464   1.00
H2       1.16143    0.44260    0.36176   1.00
C4       0.79956    0.64061    0.83449   1.00
C4       0.82324    0.69105    0.85014   1.00
C3       0.74558    0.62805    0.82101   1.00
C3       0.79137    0.72957    0.85507   1.00
C3       0.83051    0.59941    0.83224   1.00
C3       0.88214    0.70434    0.86158   1.00
C2       0.75238    0.53537    0.80388   1.00
C2       0.87333    0.79107    0.88232   1.00
C3       0.72235    0.57664    0.80620   1.00
C3       0.81607    0.77866    0.87059   1.00
C3       0.80718    0.54866    0.81695   1.00
C3       0.90446    0.75193    0.87773   1.00
H1       0.72172    0.65604    0.82152   1.00
H1       0.74902    0.72281    0.84762   1.00
C5       0.88474    0.60935    0.84521   1.00
C5       0.91813    0.66973    0.85701   1.00
H1       0.68280    0.56956    0.79699   1.00
H1       0.79130    0.80540    0.87336   1.00
H1       0.83112    0.52078    0.81515   1.00
H1       0.94402    0.75770    0.88661   1.00
O3       0.90670    0.56253    0.84527   1.00
O3       0.98211    0.69109    0.86502   1.00
Si1      0.87494    0.49999    0.86162   1.00
Si1      1.04870    0.75168    0.85351   1.00
C6       0.91284    0.45465    0.85152   1.00
C6       0.90939    0.53478    0.88557   1.00
C6       0.78508    0.45079    0.86078   1.00
C6       1.03543    0.78922    0.83176   1.00
C6       1.08795    0.81376    0.87249   1.00
C6       1.10307    0.71932    0.84769   1.00
C6       0.90684    0.44374    0.82796   1.00
H2       0.96694    0.48944    0.85441   1.00
C6       0.89713    0.38428    0.86070   1.00
H2       0.95701    0.58042    0.88144   1.00
C6       0.87008    0.56006    0.89929   1.00
C6       0.93018    0.49352    0.90009   1.00
H2       0.77531    0.44174    0.84453   1.00
C6       0.75082    0.37863    0.87097   1.00
C6       0.74125    0.48260    0.86840   1.00
C6       0.99525    0.74162    0.81358   1.00
C6       1.00812    0.84018    0.83426   1.00
H2       1.08729    0.82141    0.82615   1.00
H2       1.05325    0.83357    0.87459   1.00
C6       1.09413    0.78715    0.89387   1.00
C6       1.15942    0.87657    0.86758   1.00
H2       1.13007    0.72426    0.86187   1.00
C6       1.06772    0.64204    0.84227   1.00
C6       1.15955    0.75734    0.83123   1.00
H2       0.92706    0.49210    0.81985   1.00
H2       0.85379    0.41110    0.82333   1.00
H2       0.93596    0.42000    0.82276   1.00
H2       0.94215    0.37850    0.85951   1.00
H2       0.88274    0.37882    0.87660   1.00
H2       0.85619    0.34116    0.85259   1.00
H2       0.90301    0.59302    0.91142   1.00
H2       0.85315    0.59016    0.89083   1.00
H2       0.82583    0.51732    0.90641   1.00
H2       0.96634    0.48168    0.89284   1.00
H2       0.95557    0.52286    0.91372   1.00
H2       0.88555    0.44610    0.90498   1.00
H2       0.76751    0.38195    0.88668   1.00
H2       0.69512    0.35392    0.87097   1.00
H2       0.76231    0.34408    0.86271   1.00
H2       0.73140    0.47554    0.88467   1.00
H2       0.76452    0.53674    0.86542   1.00
H2       0.69167    0.45799    0.86079   1.00
H2       0.94032    0.71751    0.81574   1.00
H2       1.00734    0.77093    0.79950   1.00
H2       1.00797    0.70171    0.81121   1.00
H2       1.01183    0.86612    0.81992   1.00
H2       0.95483    0.81468    0.83881   1.00
H2       1.03765    0.88014    0.84528   1.00
H2       1.10818    0.82696    0.90532   1.00
H2       1.04564    0.74368    0.89868   1.00
H2       1.13269    0.77170    0.89408   1.00
H2       1.15940    0.89988    0.85310   1.00
H2       1.17390    0.91596    0.87920   1.00
H2       1.19896    0.86239    0.86717   1.00
H2       1.03660    0.62986    0.82861   1.00
H2       1.10485    0.62523    0.84003   1.00
H2       1.03468    0.61197    0.85463   1.00
H2       1.19602    0.73904    0.83123   1.00
H2       1.13761    0.74924    0.81602   1.00
H2       1.18870    0.81207    0.83404   1.00
C4       0.36188    0.16740    0.83529   1.00
C4       0.30999    0.13928    0.85051   1.00
C3       0.36191    0.20850    0.81902   1.00
C3       0.24991    0.14423    0.84996   1.00
C3       0.41651    0.15311    0.83606   1.00
C3       0.31808    0.10427    0.86734   1.00
C2       0.46687    0.21955    0.80455   1.00
C2       0.20669    0.07970    0.88165   1.00
C3       0.41272    0.23356    0.80401   1.00
C3       0.19997    0.11583    0.86519   1.00
C3       0.46796    0.17993    0.82097   1.00
C3       0.26579    0.07351    0.88206   1.00
H1       0.32514    0.22163    0.81765   1.00
H1       0.24047    0.16824    0.83841   1.00
C5       0.41953    0.11238    0.85193   1.00
C5       0.37792    0.09957    0.86931   1.00
H1       0.40981    0.26260    0.79252   1.00
H1       0.15785    0.12150    0.86408   1.00
H1       0.50784    0.17083    0.82203   1.00
H1       0.27034    0.04493    0.89331   1.00
O3       0.46542    0.08936    0.85079   1.00
O3       0.39296    0.07821    0.88723   1.00
Si1      0.44180    0.01443    0.84108   1.00
Si1      0.43219    0.13400    0.90518   1.00
C6       0.52317    0.02181    0.84065   1.00
C6       0.38787    -0.04719   0.85886   1.00
C6       0.40771    0.00390    0.81639   1.00
C6       0.45095    0.21883    0.90112   1.00
C6       0.37658    0.09929    0.92591   1.00
C6       0.50737    0.13238    0.91087   1.00
C6       0.58234    0.09004    0.83173   1.00
H2       0.53466    0.02307    0.85679   1.00
C6       0.53379    -0.03606   0.83136   1.00
H2       0.40460    -0.01886   0.87308   1.00
C6       0.30943    -0.07442   0.85754   1.00
C6       0.39454    -0.11210   0.86205   1.00
H2       0.44529    0.05086    0.80890   1.00
C6       0.40315    -0.05608   0.80334   1.00
C6       0.33647    -0.00122   0.81329   1.00
C6       0.49477    0.25756    0.88217   1.00
C6       0.39226    0.23630    0.90236   1.00
H2       0.48291    0.24534    0.91419   1.00
H2       0.33304    0.10495    0.92174   1.00
C6       0.34652    0.02116    0.92973   1.00
C6       0.40216    0.13531    0.94691   1.00
H2       0.49028    0.08833    0.92086   1.00
C6       0.54284    0.11826    0.89276   1.00
C6       0.56523    0.19440    0.92266   1.00
H2       0.58642    0.13443    0.83957   1.00
H2       0.57445    0.09496    0.81560   1.00
H2       0.63165    0.09272    0.83344   1.00
H2       0.57398    -0.03931   0.83961   1.00
H2       0.48815    -0.08603   0.83204   1.00
H2       0.54995    -0.02626   0.81552   1.00
H2       0.28400    -0.10034   0.87159   1.00
H2       0.29811    -0.03344   0.85542   1.00
H2       0.28619    -0.11098   0.84518   1.00
H2       0.44655    -0.09852   0.86610   1.00
H2       0.36215    -0.14351   0.87452   1.00
H2       0.37936    -0.14384   0.84844   1.00
H2       0.37569    -0.10455   0.81142   1.00
H2       0.37712    -0.06163   0.78888   1.00
H2       0.45349    -0.04706   0.79929   1.00
H2       0.29434    -0.05348   0.81480   1.00
H2       0.32680    0.02963    0.82384   1.00
H2       0.33327    0.01607    0.79805   1.00
H2       0.46373    0.24555    0.86853   1.00
H2       0.51922    0.31270    0.88441   1.00
H2       0.53525    0.24599    0.87931   1.00
H2       0.41319    0.29155    0.90240   1.00
H2       0.35755    0.21614    0.88953   1.00
H2       0.36253    0.21723    0.91626   1.00
H2       0.30427    0.00219    0.94054   1.00
H2       0.32614    -0.00822   0.91578   1.00
H2       0.38462    0.00994    0.93585   1.00
H2       0.42230    0.19018    0.94582   1.00
H2       0.36009    0.11559    0.95781   1.00
H2       0.44170    0.12649    0.95322   1.00
H2       0.56016    0.15789    0.88119   1.00
H2       0.58662    0.11411    0.89776   1.00
H2       0.50736    0.07010    0.88565   1.00
H2       0.60407    0.18276    0.92795   1.00
H2       0.59057    0.23971    0.91305   1.00
H2       0.54565    0.20714    0.93606   1.00
C4       0.83228    0.19471    0.83546   1.00
C4       0.86034    0.17078    0.85065   1.00
C3       0.78418    0.15172    0.82073   1.00
C3       0.84791    0.10283    0.85149   1.00
C3       0.85394    0.26567    0.83460   1.00
C3       0.90318    0.21681    0.86598   1.00
C2       0.78051    0.24756    0.80460   1.00
C2       0.92024    0.12673    0.88160   1.00
C3       0.75928    0.17742    0.80566   1.00
C3       0.87650    0.08121    0.86664   1.00
C3       0.82724    0.29039    0.81951   1.00
C3       0.93381    0.19477    0.88059   1.00
H1       0.76566    0.10044    0.82057   1.00
H1       0.81808    0.06715    0.84105   1.00
C5       0.90190    0.31142    0.84888   1.00
C5       0.91575    0.28471    0.86656   1.00
H1       0.72495    0.14397    0.79532   1.00
H1       0.86525    0.03131    0.86660   1.00
H1       0.84181    0.34111    0.81943   1.00
H1       0.96778    0.22945    0.89067   1.00
O3       0.93111    0.38073    0.84600   1.00
O3       0.94542    0.32572    0.88332   1.00
Si1      1.00400    0.42259    0.83417   1.00
Si1      0.89697    0.32050    0.90236   1.00
C6       1.00570    0.50120    0.83235   1.00
C6       1.06775    0.42839    0.85076   1.00
C6       1.00349    0.38916    0.80993   1.00
C6       0.80891    0.26023    0.90095   1.00
C6       0.93319    0.30042    0.92287   1.00
C6       0.90926    0.40278    0.90643   1.00
C6       0.93832    0.49740    0.82470   1.00
H2       1.01065    0.51691    0.84821   1.00
C6       1.06484    0.56335    0.82085   1.00
H2       1.04434    0.42390    0.86557   1.00
C6       1.08669    0.37078    0.85007   1.00
C6       1.13764    0.49665    0.85150   1.00
H2       0.95634    0.38284    0.80338   1.00
C6       1.06192    0.43619    0.79491   1.00
C6       0.99953    0.31805    0.80810   1.00
C6       0.76763    0.26471    0.88259   1.00
C6       0.78405    0.18264    0.90399   1.00
H2       0.78885    0.27312    0.91424   1.00
H2       0.92085    0.24812    0.91981   1.00
C6       1.01282    0.34251    0.92451   1.00
C6       0.90482    0.30013    0.94452   1.00
H2       0.95652    0.42868    0.91515   1.00
C6       0.92271    0.44781    0.88720   1.00
C6       0.85458    0.40955    0.91919   1.00
H2       0.89462    0.46279    0.83399   1.00
H2       0.92731    0.47973    0.80899   1.00
H2       0.94183    0.54729    0.82550   1.00
H2       1.07549    0.61110    0.82811   1.00
H2       1.11211    0.56196    0.82067   1.00
H2       1.05161    0.56654    0.80511   1.00
H2       1.11520    0.37228    0.86364   1.00
H2       1.04171    0.32018    0.84964   1.00
H2       1.11855    0.37661    0.83694   1.00
H2       1.13074    0.53994    0.85495   1.00
H2       1.17059    0.49546    0.86344   1.00
H2       1.16499    0.50610    0.83714   1.00
H2       1.11202    0.45474    0.80179   1.00
H2       1.06026    0.40966    0.78086   1.00
H2       1.05713    0.47956    0.79018   1.00
H2       1.04989    0.32274    0.80861   1.00
H2       0.96924    0.28237    0.81989   1.00
H2       0.97635    0.29408    0.79362   1.00
H2       0.77241    0.23915    0.86922   1.00
H2       0.71333    0.23988    0.88628   1.00
H2       0.78366    0.31719    0.87851   1.00
H2       0.72855    0.15335    0.90556   1.00
H2       0.79720    0.16103    0.89122   1.00
H2       0.80482    0.17322    0.91775   1.00
H2       1.03106    0.31891    0.93544   1.00
H2       1.03698    0.34421    0.91000   1.00
H2       1.03094    0.39482    0.92942   1.00
H2       0.84927    0.27002    0.94498   1.00
H2       0.92390    0.27744    0.95551   1.00
H2       0.92065    0.35178    0.94968   1.00
H2       0.87963    0.42578    0.87675   1.00
H2       0.93374    0.49920    0.89114   1.00
H2       0.96690    0.45310    0.87914   1.00
H2       0.87298    0.46279    0.92325   1.00
H2       0.80708    0.39126    0.91073   1.00
H2       0.84300    0.38110    0.93336   1.00
C4       -0.02831   0.46326    0.33153   1.00
C4       0.02226    0.48778    0.31590   1.00
C3       -0.07142   0.39304    0.33599   1.00
C3       0.03053    0.44452    0.30201   1.00
C3       -0.03744   0.51113    0.34323   1.00
C3       0.06751    0.55944    0.31392   1.00
C2       -0.13163   0.41764    0.36270   1.00
C2       0.12475    0.54139    0.28442   1.00
C3       -0.12193   0.37079    0.35107   1.00
C3       0.08077    0.47051    0.28682   1.00
C3       -0.08782   0.48771    0.35863   1.00
C3       0.11586    0.58473    0.29797   1.00
H1       -0.06724   0.35600    0.32848   1.00
H1       0.00004    0.39288    0.30243   1.00
C5       0.00401    0.58209    0.33954   1.00
C5       0.06398    0.60555    0.32773   1.00
H1       -0.15193   0.31934    0.35352   1.00
H1       0.08478    0.43677    0.27732   1.00
H1       -0.09251   0.52271    0.36728   1.00
H1       0.14492    0.63628    0.29596   1.00
O3       -0.01228   0.62721    0.34842   1.00
O3       0.11522    0.67301    0.32864   1.00
Si1      -0.05937   0.65119    0.33613   1.00
Si1      0.18227    0.69311    0.34256   1.00
C6       -0.07093   0.69566    0.35631   1.00
C6       -0.00848   0.70743    0.31679   1.00
C6       -0.13797   0.58229    0.32793   1.00
C6       0.18741    0.62686    0.35513   1.00
C6       0.24982    0.73311    0.32522   1.00
C6       0.18944    0.75484    0.36018   1.00
C6       -0.09187   0.65742    0.37718   1.00
H2       -0.01937   0.73844    0.35856   1.00
C6       -0.11745   0.72836    0.35380   1.00
H2       0.04279    0.72719    0.32290   1.00
C6       -0.00804   0.67698    0.29553   1.00
C6       -0.01521   0.77162    0.31220   1.00
H2       -0.15638   0.55091    0.34160   1.00
C6       -0.19512   0.59859    0.32173   1.00
C6       -0.13893   0.53438    0.31053   1.00
C6       0.12844    0.58017    0.36996   1.00
C6       0.20450    0.57837    0.34267   1.00
H2       0.23218    0.65511    0.36476   1.00
H2       0.24398    0.69155    0.31549   1.00
C6       0.24725    0.78625    0.31058   1.00
C6       0.32396    0.76758    0.33390   1.00
H2       0.21371    0.80244    0.35159   1.00
C6       0.12124    0.74772    0.36804   1.00
C6       0.23509    0.76772    0.37937   1.00
H2       -0.05566   0.64168    0.38201   1.00
H2       -0.14240   0.61191    0.37637   1.00
H2       -0.09287   0.69028    0.38917   1.00
H2       -0.09715   0.77507    0.36279   1.00
H2       -0.12100   0.74163    0.33818   1.00
H2       -0.16937   0.69474    0.35918   1.00
H2       0.03534    0.71379    0.28648   1.00
H2       -0.00308   0.63173    0.29673   1.00
H2       -0.05433   0.66399    0.28702   1.00
H2       -0.00621   0.80263    0.32576   1.00
H2       0.02261    0.80489    0.30104   1.00
H2       -0.06558   0.75698    0.30612   1.00
H2       -0.17667   0.63892    0.31033   1.00
H2       -0.24011   0.55390    0.31554   1.00
H2       -0.21360   0.61390    0.33478   1.00
H2       -0.14082   0.55364    0.29550   1.00
H2       -0.09516   0.52710    0.31069   1.00
H2       -0.18415   0.48378    0.31196   1.00
H2       0.08524    0.53940    0.36193   1.00
H2       0.14596    0.55590    0.38088   1.00
H2       0.11018    0.60868    0.37867   1.00
H2       0.21534    0.54678    0.35284   1.00
H2       0.16248    0.54374    0.33297   1.00
H2       0.24973    0.60655    0.33325   1.00
H2       0.28422    0.79943    0.29828   1.00
H2       0.19713    0.76564    0.30349   1.00
H2       0.25890    0.83330    0.31841   1.00
H2       0.33114    0.73326    0.34389   1.00
H2       0.36099    0.78169    0.32158   1.00
H2       0.33661    0.81402    0.34230   1.00
H2       0.09064    0.70027    0.37633   1.00
H2       0.13015    0.79009    0.37794   1.00
H2       0.09112    0.74832    0.35532   1.00
H2       0.24381    0.81371    0.38738   1.00
H2       0.21117    0.72518    0.39004   1.00
H2       0.28513    0.77533    0.37536   1.00
C4       0.49164    1.02855    0.33146   1.00
C4       0.46564    0.97795    0.31584   1.00
C3       0.46703    1.07422    0.33516   1.00
C3       0.41690    0.97207    0.30122   1.00
C3       0.54601    1.03500    0.34397   1.00
C3       0.48913    0.93014    0.31463   1.00
C2       0.54922    1.13169    0.36268   1.00
C2       0.41671    0.87519    0.28444   1.00
C3       0.49524    1.12463    0.35026   1.00
C3       0.39261    0.92172    0.28607   1.00
C3       0.57292    1.08536    0.35937   1.00
C3       0.46620    0.88166    0.29872   1.00
H1       0.42772    1.07204    0.32704   1.00
H1       0.39793    1.00445    0.30108   1.00
C5       0.57295    0.99092    0.34107   1.00
C5       0.53579    0.93126    0.32916   1.00
H1       0.47569    1.15654    0.35214   1.00
H1       0.35694    0.91952    0.27602   1.00
H1       0.61062    1.08814    0.36859   1.00
H1       0.48676    0.85066    0.29729   1.00
O3       0.63234    1.00445    0.35076   1.00
O3       0.54870    0.87787    0.33074   1.00
Si1      0.70547    1.04889    0.33922   1.00
Si1      0.49774    0.81172    0.34444   1.00
C6       0.75795    1.05795    0.36016   1.00
C6       0.71043    0.99628    0.32038   1.00
C6       0.72013    1.12891    0.33056   1.00
C6       0.42650    0.81031    0.35592   1.00
C6       0.46959    0.74376    0.32722   1.00
C6       0.54812    0.80163    0.36295   1.00
C6       0.73959    1.08051    0.38058   1.00
H2       0.74638    1.00557    0.36268   1.00
C6       0.83772    1.10145    0.35852   1.00
H2       0.67630    0.94542    0.32640   1.00
C6       0.68311    0.99728    0.29867   1.00
C6       0.78029    0.99941    0.31685   1.00
H2       0.70676    1.14857    0.34387   1.00
C6       0.79533    1.18358    0.32506   1.00
C6       0.67679    1.13222    0.31243   1.00
C6       0.43967    0.87024    0.37047   1.00
C6       0.36346    0.79614    0.34259   1.00
H2       0.40683    0.76535    0.36564   1.00
H2       0.43644    0.75156    0.31690   1.00
C6       0.52572    0.74335    0.31344   1.00
C6       0.42599    0.66991    0.33586   1.00
H2       0.57058    0.77544    0.35492   1.00
C6       0.61008    0.86840    0.37121   1.00
C6       0.51139    0.75670    0.38197   1.00
H2       0.68657    1.04615    0.38487   1.00
H2       0.74726    1.13204    0.37944   1.00
H2       0.77101    1.07984    0.39307   1.00
H2       0.86114    1.07932    0.36808   1.00
H2       0.85625    1.10409    0.34315   1.00
H2       0.85757    1.15377    0.36377   1.00
H2       0.67557    0.95308    0.28987   1.00
H2       0.63391    0.99485    0.29912   1.00
H2       0.71902    1.04292    0.29032   1.00
H2       0.79945    0.98912    0.33081   1.00
H2       0.77527    0.96077    0.30593   1.00
H2       0.81846    1.04912    0.31093   1.00
H2       0.81706    1.16342    0.31415   1.00
H2       0.79881    1.22964    0.31853   1.00
H2       0.82748    1.20085    0.33847   1.00
H2       0.69936    1.13293    0.29774   1.00
H2       0.62484    1.09004    0.31215   1.00
H2       0.67379    1.17888    0.31343   1.00
H2       0.44536    0.91434    0.36214   1.00
H2       0.39673    0.85456    0.38086   1.00
H2       0.48497    0.88657    0.37975   1.00
H2       0.32037    0.78735    0.35218   1.00
H2       0.37413    0.83876    0.33269   1.00
H2       0.34569    0.75059    0.33327   1.00
H2       0.50222    0.70660    0.30108   1.00
H2       0.55796    0.79312    0.30642   1.00
H2       0.55849    0.72960    0.32191   1.00
H2       0.38401    0.66482    0.34525   1.00
H2       0.40332    0.63305    0.32348   1.00
H2       0.45706    0.65522    0.34487   1.00
H2       0.59429    0.90073    0.37899   1.00
H2       0.64085    0.85758    0.38169   1.00
H2       0.64316    0.89756    0.35874   1.00
H2       0.54612    0.74587    0.39061   1.00
H2       0.49321    0.78230    0.39214   1.00
H2       0.46802    0.70760    0.37770   1.00
C4       0.53691    0.50836    0.33146   1.00
C4       0.51232    0.53437    0.31584   1.00
C3       0.60720    0.53309    0.33519   1.00
C3       0.55520    0.58323    0.30126   1.00
C3       0.48899    0.45388    0.34393   1.00
C3       0.44100    0.51075    0.31460   1.00
C2       0.58248    0.45078    0.36268   1.00
C2       0.45849    0.58329    0.28444   1.00
C3       0.62939    0.50487    0.35029   1.00
C3       0.52914    0.60751    0.28610   1.00
C3       0.51243    0.42697    0.35934   1.00
C3       0.41546    0.53369    0.29869   1.00
H1       0.64432    0.57248    0.32710   1.00
H1       0.60656    0.60229    0.30114   1.00
C5       0.41797    0.42682    0.34100   1.00
C5       0.39543    0.46396    0.32910   1.00
H1       0.68086    0.52451    0.35220   1.00
H1       0.56263    0.64328    0.27608   1.00
H1       0.47751    0.38917    0.36854   1.00
H1       0.36390    0.51304    0.29723   1.00
O3       0.37213    0.36734    0.35066   1.00
O3       0.32908    0.45091    0.33065   1.00
Si1      0.34364    0.29430    0.33909   1.00
Si1      0.31367    0.50170    0.34436   1.00
C6       0.30017    0.24166    0.36000   1.00
C6       0.28612    0.28932    0.32023   1.00
C6       0.40915    0.27984    0.33045   1.00
C6       0.38336    0.57295    0.35589   1.00
C6       0.27386    0.52983    0.32713   1.00
C6       0.25314    0.45114    0.36283   1.00
C6       0.34098    0.25998    0.38044   1.00
H2       0.25927    0.25311    0.36250   1.00
C6       0.26405    0.16191    0.35832   1.00
H2       0.26926    0.32334    0.32625   1.00
C6       0.31454    0.31679    0.29853   1.00
C6       0.21949    0.21941    0.31665   1.00
H2       0.44212    0.29320    0.34377   1.00
C6       0.38880    0.20472    0.32492   1.00
C6       0.45587    0.32334    0.31235   1.00
C6       0.43011    0.55982    0.37045   1.00
C6       0.43222    0.63610    0.34260   1.00
H2       0.35794    0.59249    0.36560   1.00
H2       0.31484    0.56309    0.31684   1.00
C6       0.21745    0.47371    0.31332   1.00
C6       0.24343    0.57326    0.33578   1.00
H2       0.20454    0.42864    0.35478   1.00
C6       0.25805    0.38921    0.37108   1.00
C6       0.24474    0.48770    0.38186   1.00
H2       0.35952    0.31296    0.38475   1.00
H2       0.38491    0.25242    0.37931   1.00
H2       0.30885    0.22846    0.39290   1.00
H2       0.21844    0.13836    0.36785   1.00
H2       0.24827    0.14345    0.34294   1.00
H2       0.29657    0.14213    0.36358   1.00
H2       0.27787    0.32428    0.28972   1.00
H2       0.36125    0.36603    0.29902   1.00
H2       0.32440    0.28098    0.29018   1.00
H2       0.18998    0.20012    0.33059   1.00
H2       0.18589    0.22440    0.30572   1.00
H2       0.23117    0.18134    0.31073   1.00
H2       0.34697    0.18297    0.31399   1.00
H2       0.43148    0.20137    0.31840   1.00
H2       0.37390    0.17250    0.33832   1.00
H2       0.43411    0.30083    0.29765   1.00
H2       0.46553    0.37526    0.31209   1.00
H2       0.50557    0.32644    0.31336   1.00
H2       0.46862    0.55427    0.36214   1.00
H2       0.45725    0.60271    0.38086   1.00
H2       0.40116    0.51445    0.37971   1.00
H2       0.46640    0.67917    0.35221   1.00
H2       0.46429    0.62558    0.33270   1.00
H2       0.40441    0.65384    0.33327   1.00
H2       0.20421    0.49722    0.30096   1.00
H2       0.23511    0.44158    0.30630   1.00
H2       0.17091    0.44082    0.32176   1.00
H2       0.28021    0.61523    0.34520   1.00
H2       0.22924    0.59594    0.32341   1.00
H2       0.19763    0.54207    0.34477   1.00
H2       0.30615    0.40505    0.37888   1.00
H2       0.21642    0.35833    0.38153   1.00
H2       0.25427    0.35623    0.35860   1.00
H2       0.19916    0.45287    0.39048   1.00
H2       0.28847    0.50590    0.39206   1.00
H2       0.23894    0.53104    0.37760   1.00
C4       0.19695    0.35866    0.16570   1.00
C4       0.17223    0.30800    0.15010   1.00
C3       0.16070    0.35247    0.18388   1.00
C3       0.10627    0.24915    0.15028   1.00
C3       0.26098    0.41961    0.16299   1.00
C3       0.21545    0.31594    0.13332   1.00
C2       0.24884    0.46489    0.19606   1.00
C2       0.12545    0.20867    0.11774   1.00
C3       0.18570    0.40425    0.19860   1.00
C3       0.08371    0.20051    0.13465   1.00
C3       0.28591    0.47069    0.17819   1.00
C3       0.19068    0.26784    0.11730   1.00
H1       0.11518    0.31006    0.18700   1.00
H1       0.07250    0.24010    0.16170   1.00
C5       0.29982    0.42901    0.14515   1.00
C5       0.28287    0.37205    0.13250   1.00
H1       0.15700    0.39714    0.21138   1.00
H1       0.03572    0.15865    0.13567   1.00
H1       0.33278    0.51329    0.17629   1.00
H1       0.22062    0.27652    0.10479   1.00
O3       0.35551    0.49197    0.14104   1.00
O3       0.32965    0.37371    0.11870   1.00
Si1      0.34666    0.54607    0.12680   1.00
Si1      0.37269    0.33590    0.12448   1.00
C6       0.42917    0.61643    0.13062   1.00
C6       0.33575    0.51617    0.10162   1.00
C6       0.28329    0.56342    0.13565   1.00
C6       0.35515    0.29196    0.14784   1.00
C6       0.35356    0.27801    0.10445   1.00
C6       0.45987    0.39768    0.12291   1.00
C6       0.45437    0.63134    0.15318   1.00
H2       0.46134    0.59958    0.12322   1.00
C6       0.45051    0.68798    0.12115   1.00
H2       0.36074    0.48562    0.10196   1.00
C6       0.26164    0.46732    0.09383   1.00
C6       0.37147    0.56917    0.08416   1.00
H2       0.29559    0.57300    0.15177   1.00
C6       0.28463    0.62874    0.12717   1.00
C6       0.20611    0.50646    0.13435   1.00
C6       0.36260    0.33276    0.16773   1.00
C6       0.28819    0.22141    0.15026   1.00
H2       0.39544    0.27892    0.14864   1.00
H2       0.30018    0.23989    0.10695   1.00
C6       0.35635    0.30648    0.08260   1.00
C6       0.39361    0.23838    0.10353   1.00
H2       0.47125    0.40072    0.10673   1.00
C6       0.47961    0.47172    0.12915   1.00
C6       0.51239    0.38232    0.13368   1.00
H2       0.45180    0.58664    0.16036   1.00
H2       0.42366    0.64657    0.16218   1.00
H2       0.50755    0.67218    0.15408   1.00
H2       0.50463    0.71436    0.11715   1.00
H2       0.42216    0.68455    0.10747   1.00
H2       0.44369    0.72117    0.13174   1.00
H2       0.26251    0.44138    0.07993   1.00
H2       0.23146    0.42743    0.10475   1.00
H2       0.23526    0.49538    0.09040   1.00
H2       0.42634    0.59994    0.08665   1.00
H2       0.36507    0.54379    0.06954   1.00
H2       0.35017    0.60290    0.08271   1.00
H2       0.28432    0.62883    0.11061   1.00
H2       0.24088    0.63278    0.13237   1.00
H2       0.32916    0.67493    0.13251   1.00
H2       0.18342    0.50676    0.11978   1.00
H2       0.19764    0.45539    0.13655   1.00
H2       0.17679    0.51467    0.14608   1.00
H2       0.31704    0.33598    0.17082   1.00
H2       0.37033    0.30757    0.18078   1.00
H2       0.40605    0.38434    0.16717   1.00
H2       0.28936    0.19648    0.16435   1.00
H2       0.24289    0.22642    0.15086   1.00
H2       0.28173    0.18624    0.13803   1.00
H2       0.33272    0.26468    0.07165   1.00
H2       0.32824    0.33404    0.08179   1.00
H2       0.40858    0.34080    0.07765   1.00
H2       0.39266    0.21487    0.11807   1.00
H2       0.37056    0.19721    0.09236   1.00
H2       0.44669    0.27181    0.09911   1.00
H2       0.46814    0.47505    0.14503   1.00
H2       0.53373    0.50750    0.12661   1.00
H2       0.45140    0.48906    0.11998   1.00
H2       0.56451    0.41903    0.12905   1.00
H2       0.50973    0.38531    0.15017   1.00
H2       0.50394    0.33189    0.12978   1.00
C4       0.63380    0.83529    0.16348   1.00
C4       0.68578    0.86335    0.14829   1.00
C3       0.57047    0.83361    0.16179   1.00
C3       0.68222    0.89803    0.13079   1.00
C3       0.64567    0.80817    0.18158   1.00
C3       0.74482    0.85656    0.15050   1.00
C2       0.53268    0.78072    0.19532   1.00
C2       0.79376    0.92003    0.11848   1.00
C3       0.52144    0.80745    0.17731   1.00
C3       0.73440    0.92504    0.11620   1.00
C3       0.59503    0.78084    0.19689   1.00
C3       0.79813    0.88669    0.13607   1.00
H1       0.55801    0.85113    0.14921   1.00
H1       0.64182    0.90506    0.12820   1.00
C5       0.70791    0.80826    0.18422   1.00
C5       0.75071    0.82033    0.16718   1.00
H1       0.47678    0.80803    0.17531   1.00
H1       0.72879    0.94909    0.10376   1.00
H1       0.60347    0.75985    0.20954   1.00
H1       0.84192    0.88516    0.13854   1.00
O3       0.72387    0.79277    0.20291   1.00
O3       0.80014    0.80154    0.16754   1.00
Si1      0.76964    0.85391    0.21890   1.00
Si1      0.78465    0.73098    0.15633   1.00
C6       0.76061    0.80148    0.23984   1.00
C6       0.85417    0.89646    0.20980   1.00
C6       0.73521    0.90711    0.22415   1.00
C6       0.70618    0.68333    0.14345   1.00
C6       0.85207    0.75833    0.13895   1.00
C6       0.79422    0.67982    0.17468   1.00
C6       0.68623    0.74271    0.24445   1.00
H2       0.78807    0.77596    0.23476   1.00
C6       0.79200    0.83319    0.26105   1.00
H2       0.85552    0.85689    0.20070   1.00
C6       0.87656    0.95860    0.19522   1.00
C6       0.91384    0.92008    0.22542   1.00
H2       0.68168    0.87007    0.22712   1.00
C6       0.76204    0.95322    0.24352   1.00
C6       0.73578    0.95623    0.20721   1.00
C6       0.63889    0.65920    0.15574   1.00
C6       0.69534    0.70915    0.12249   1.00
H2       0.70658    0.63667    0.13956   1.00
H2       0.84103    0.78665    0.12764   1.00
C6       0.92483    0.80987    0.14724   1.00
C6       0.85887    0.70214    0.12714   1.00
H2       0.84923    0.70026    0.17545   1.00
C6       0.77272    0.68524    0.19676   1.00
C6       0.76205    0.60180    0.17018   1.00
H2       0.66312    0.71019    0.23121   1.00
H2       0.65354    0.76308    0.24907   1.00
H2       0.68578    0.70962    0.25660   1.00
H2       0.80839    0.80120    0.26886   1.00
H2       0.83605    0.88414    0.25993   1.00
H2       0.75511    0.83629    0.27102   1.00
H2       0.92393    0.97086    0.18739   1.00
H2       0.83890    0.94812    0.18344   1.00
H2       0.88557    1.00402    0.20355   1.00
H2       0.90839    0.87750    0.23458   1.00
H2       0.96313    0.94095    0.21775   1.00
H2       0.91638    0.95968    0.23545   1.00
H2       0.81761    0.98418    0.24341   1.00
H2       0.74152    0.98775    0.24477   1.00
H2       0.74597    0.92286    0.25729   1.00
H2       0.78316    1.00522    0.20718   1.00
H2       0.72915    0.93552    0.19203   1.00
H2       0.69422    0.96681    0.20975   1.00
H2       0.62535    0.69898    0.15674   1.00
H2       0.59628    0.61538    0.14835   1.00
H2       0.64238    0.64340    0.17108   1.00
H2       0.64879    0.66986    0.11518   1.00
H2       0.69013    0.75416    0.12400   1.00
H2       0.73685    0.72089    0.11193   1.00
H2       0.96105    0.83259    0.13472   1.00
H2       0.92493    0.85187    0.15544   1.00
H2       0.94412    0.78535    0.15740   1.00
H2       0.81065    0.66476    0.12026   1.00
H2       0.89588    0.72502    0.11480   1.00
H2       0.87647    0.67539    0.13703   1.00
H2       0.71856    0.66855    0.19788   1.00
H2       0.78398    0.65512    0.20737   1.00
H2       0.80111    0.73781    0.20185   1.00
H2       0.78019    0.57795    0.18106   1.00
H2       0.70646    0.57533    0.17120   1.00
H2       0.77586    0.59265    0.15514   1.00
C4       0.16366    0.79759    0.16353   1.00
C4       0.13572    0.82176    0.14837   1.00
C3       0.15374    0.73052    0.16375   1.00
C3       0.09010    0.77959    0.13302   1.00
C3       0.20293    0.84221    0.17961   1.00
C3       0.15417    0.89196    0.14835   1.00
C2       0.21901    0.75154    0.19528   1.00
C2       0.08024    0.87417    0.11852   1.00
C3       0.18030    0.70797    0.17924   1.00
C3       0.06360    0.80517    0.11839   1.00
C3       0.23037    0.81888    0.19489   1.00
C3       0.12462    0.91606    0.13401   1.00
H1       0.12712    0.69617    0.15263   1.00
H1       0.07444    0.72896    0.13209   1.00
C5       0.21479    0.90993    0.18028   1.00
C5       0.20147    0.93765    0.16274   1.00
H1       0.17105    0.65875    0.17869   1.00
H1       0.03128    0.77243    0.10754   1.00
H1       0.26002    0.85204    0.20602   1.00
H1       0.13494    0.96539    0.13500   1.00
O3       0.24267    0.94890    0.19743   1.00
O3       0.23019    1.00740    0.16057   1.00
Si1      0.19279    0.95069    0.21502   1.00
Si1      0.29754    1.04847    0.14626   1.00
C6       0.25675    0.99662    0.23324   1.00
C6       0.15785    0.99954    0.20563   1.00
C6       0.13258    0.86896    0.22408   1.00
C6       0.32883    1.00106    0.13347   1.00
C6       0.27202    1.08885    0.12841   1.00
C6       0.36215    1.11205    0.16140   1.00
C6       0.30865    0.97107    0.23702   1.00
H2       0.28634    1.04644    0.22601   1.00
C6       0.23815    1.01137    0.25488   1.00
H2       0.19605    1.03209    0.19451   1.00
C6       0.08879    0.96208    0.19379   1.00
C6       0.15018    1.04931    0.22044   1.00
H2       0.16417    0.84576    0.22674   1.00
C6       0.09701    0.86526    0.24480   1.00
C6       0.07253    0.81865    0.20991   1.00
C6       0.34859    0.95575    0.14646   1.00
C6       0.28980    0.95744    0.11446   1.00
H2       0.37683    1.04115    0.12717   1.00
H2       0.23473    1.04699    0.11908   1.00
C6       0.23349    1.12469    0.13705   1.00
C6       0.32763    1.14080    0.11358   1.00
H2       0.35023    1.15318    0.16151   1.00
C6       0.36284    1.09384    0.18417   1.00
C6       0.43766    1.14480    0.15385   1.00
H2       0.33322    0.96937    0.22295   1.00
H2       0.28343    0.92001    0.24367   1.00
H2       0.34943    1.00521    0.24730   1.00
H2       0.27865    1.06067    0.26040   1.00
H2       0.19094    1.01289    0.25507   1.00
H2       0.23306    0.97346    0.26604   1.00
H2       0.08029    0.99854    0.18522   1.00
H2       0.08802    0.92591    0.18278   1.00
H2       0.04578    0.93510    0.20413   1.00
H2       0.19883    1.08521    0.22742   1.00
H2       0.13291    1.08025    0.21242   1.00
H2       0.11304    1.02130    0.23235   1.00
H2       0.07355    0.89727    0.24459   1.00
H2       0.05724    0.81322    0.24850   1.00
H2       0.13293    0.88096    0.25732   1.00
H2       0.02850    0.82595    0.21098   1.00
H2       0.08646    0.82329    0.19403   1.00
H2       0.05526    0.76587    0.21428   1.00
H2       0.30432    0.90641    0.14996   1.00
H2       0.38453    0.94573    0.13818   1.00
H2       0.37310    0.98017    0.16067   1.00
H2       0.32026    0.93923    0.10663   1.00
H2       0.24163    0.91262    0.11848   1.00
H2       0.27958    0.98688    0.10335   1.00
H2       0.20976    1.13789    0.12474   1.00
H2       0.19253    1.09115    0.14736   1.00
H2       0.26763    1.17151    0.14519   1.00
H2       0.35597    1.11929    0.10632   1.00
H2       0.30395    1.15477    0.10144   1.00
H2       0.36373    1.18766    0.12140   1.00
H2       0.37180    1.05113    0.18609   1.00
H2       0.40177    1.13722    0.19271   1.00
H2       0.31407    1.07986    0.19108   1.00
H2       0.47122    1.19010    0.16277   1.00
H2       0.45674    1.10917    0.15521   1.00
H2       0.44287    1.16114    0.13808   1.00
C4       1.02571    0.52881    0.66778   1.00
C4       0.97523    0.50454    0.68342   1.00
C3       1.03169    0.48563    0.65331   1.00
C3       0.92979    0.43432    0.68731   1.00
C3       1.07384    0.60003    0.66657   1.00
C3       0.96919    0.55266    0.69596   1.00
C2       1.13133    0.58143    0.63722   1.00
C2       0.87555    0.45954    0.71566   1.00
C3       1.08325    0.51111    0.63853   1.00
C3       0.88089    0.41240    0.70286   1.00
C3       1.12469    0.62489    0.65130   1.00
C3       0.92154    0.52948    0.71209   1.00
H1       0.99861    0.43442    0.65305   1.00
H1       0.93116    0.39702    0.67905   1.00
C5       1.07069    0.64600    0.68056   1.00
C5       1.01106    0.62358    0.69247   1.00
H1       1.08536    0.47738    0.62856   1.00
H1       0.84899    0.36098    0.70486   1.00
H1       1.15768    0.67632    0.65026   1.00
H1       0.92083    0.56449    0.72173   1.00
O3       1.12350    0.71244    0.68152   1.00
O3       0.99719    0.67026    0.70161   1.00
Si1      1.18531    0.73340    0.69776   1.00
Si1      0.94226    0.68715    0.69095   1.00
C6       1.23890    0.81726    0.68890   1.00
C6       1.15286    0.73346    0.72207   1.00
C6       1.22505    0.68361    0.69550   1.00
C6       0.90079    0.64248    0.66861   1.00
C6       0.88155    0.66806    0.71014   1.00
C6       0.98431    0.77573    0.68658   1.00
C6       1.24995    0.82529    0.66536   1.00
H2       1.20945    0.84203    0.69260   1.00
C6       1.31136    0.86378    0.69839   1.00
H2       1.11107    0.74265    0.71851   1.00
C6       1.12033    0.66593    0.73470   1.00
C6       1.19941    0.79086    0.73738   1.00
H2       1.23350    0.68458    0.67915   1.00
C6       1.29680    0.71192    0.70563   1.00
C6       1.18503    0.60639    0.70188   1.00
C6       0.94598    0.64709    0.65007   1.00
C6       0.84281    0.56608    0.67006   1.00
H2       0.87390    0.66884    0.66379   1.00
H2       0.85563    0.61261    0.71132   1.00
C6       0.91041    0.69521    0.73185   1.00
C6       0.82486    0.68686    0.70615   1.00
H2       0.98265    0.79719    0.70126   1.00
C6       1.06155    0.81047    0.68116   1.00
C6       0.95200    0.80360    0.67098   1.00
H2       1.20149    0.80365    0.65724   1.00
H2       1.27728    0.79997    0.65993   1.00
H2       1.27930    0.87901    0.66101   1.00
H2       1.32380    0.91707    0.69821   1.00
H2       1.31495    0.85061    0.71402   1.00
H2       1.35155    0.86160    0.68985   1.00
H2       1.08976    0.66824    0.74719   1.00
H2       1.08610    0.62178    0.72561   1.00
H2       1.15948    0.65709    0.74128   1.00
H2       1.21714    0.84147    0.73101   1.00
H2       1.17162    0.78825    0.75124   1.00
H2       1.24351    0.78635    0.74177   1.00
H2       1.29541    0.72367    0.72163   1.00
H2       1.31528    0.67563    0.70469   1.00
H2       1.33522    0.75748    0.69795   1.00
H2       1.19096    0.59946    0.71799   1.00
H2       1.13079    0.58171    0.69890   1.00
H2       1.20435    0.57790    0.69348   1.00
H2       0.96390    0.61066    0.65130   1.00
H2       0.91671    0.63549    0.63599   1.00
H2       0.99019    0.69781    0.64834   1.00
H2       0.81594    0.54874    0.65557   1.00
H2       0.86240    0.53222    0.67372   1.00
H2       0.80433    0.55852    0.68130   1.00
H2       0.86993    0.67129    0.74320   1.00
H2       0.94977    0.68298    0.73605   1.00
H2       0.93221    0.75031    0.73302   1.00
H2       0.80027    0.66802    0.69147   1.00
H2       0.78488    0.66377    0.71768   1.00
H2       0.84545    0.74195    0.70670   1.00
H2       1.07031    0.79121    0.66699   1.00
H2       1.08462    0.86576    0.67987   1.00
H2       1.08873    0.80088    0.69308   1.00
H2       0.97654    0.85916    0.67193   1.00
H2       0.95774    0.79061    0.65542   1.00
H2       0.89789    0.78355    0.67389   1.00
C4       0.50341    -0.02561   0.66774   1.00
C4       0.52957    0.02489    0.68338   1.00
C3       0.45717    -0.02926   0.65258   1.00
C3       0.50741    0.07282    0.68653   1.00
C3       0.52343    -0.07618   0.66727   1.00
C3       0.58090    0.02833    0.69670   1.00
C2       0.45020    -0.13135   0.63723   1.00
C2       0.58387    0.12447    0.71565   1.00
C3       0.43098    -0.08087   0.63780   1.00
C3       0.53424    0.12166    0.70209   1.00
C3       0.49742    -0.12707   0.65202   1.00
C3       0.60515    0.07602    0.71283   1.00
H1       0.44136    0.00561    0.65177   1.00
H1       0.47082    0.07339    0.67768   1.00
C5       0.56954    -0.07543   0.68199   1.00
C5       0.60735    -0.01615   0.69400   1.00
H1       0.39732    -0.08123   0.62731   1.00
H1       0.51672    0.15541    0.70353   1.00
H1       0.51371    -0.16188   0.65153   1.00
H1       0.63866    0.07495    0.72301   1.00
O3       0.57984    -0.13029   0.68358   1.00
O3       0.66574    -0.00505   0.70396   1.00
Si1      0.53478    -0.19138   0.69966   1.00
Si1      0.73981    0.04740    0.69401   1.00
C6       0.56247    -0.24799   0.69170   1.00
C6       0.56499    -0.15962   0.72419   1.00
C6       0.44597    -0.22742   0.69632   1.00
C6       0.74176    0.08990    0.67130   1.00
C6       0.78103    0.10760    0.71334   1.00
C6       0.78333    0.00180    0.69069   1.00
C6       0.56196    -0.25935   0.66822   1.00
H2       0.61624    -0.22063   0.69600   1.00
C6       0.53219    -0.32084   0.70135   1.00
H2       0.61720    -0.11949   0.72110   1.00
C6       0.53110    -0.12433   0.73600   1.00
C6       0.57110    -0.20781   0.74002   1.00
H2       0.44035    -0.23582   0.67994   1.00
C6       0.39864    -0.29862   0.70633   1.00
C6       0.41115    -0.18438   0.70180   1.00
C6       0.70230    0.04556    0.65251   1.00
C6       0.72677    0.15034    0.67201   1.00
H2       0.79555    0.11463    0.66711   1.00
H2       0.75357    0.13575    0.71385   1.00
C6       0.77505    0.07827    0.73523   1.00
C6       0.85791    0.16172    0.71008   1.00
H2       0.80401    0.00239    0.70570   1.00
C6       0.73862    -0.07521   0.68522   1.00
C6       0.84552    0.03162    0.67579   1.00
H2       0.59163    -0.21114   0.66015   1.00
H2       0.51004    -0.28464   0.66219   1.00
H2       0.58463    -0.29076   0.66448   1.00
H2       0.57124    -0.33576   0.70190   1.00
H2       0.51373    -0.32351   0.71672   1.00
H2       0.48998    -0.35989   0.69247   1.00
H2       0.56308    -0.09462   0.74875   1.00
H2       0.52446    -0.08878   0.72651   1.00
H2       0.48156    -0.16188   0.74214   1.00
H2       0.60291    -0.22776   0.73431   1.00
H2       0.59526    -0.18053   0.75404   1.00
H2       0.52096    -0.25042   0.74399   1.00
H2       0.40944    -0.29776   0.72250   1.00
H2       0.34457    -0.31468   0.70468   1.00
H2       0.40452    -0.33844   0.69907   1.00
H2       0.39628    -0.18965   0.71773   1.00
H2       0.44313    -0.13035   0.69885   1.00
H2       0.36474    -0.20173   0.69281   1.00
H2       0.64838    0.03006    0.65303   1.00
H2       0.72283    0.07453    0.63849   1.00
H2       0.70650    -0.00012   0.65123   1.00
H2       0.73931    0.17726    0.65748   1.00
H2       0.67333    0.13309    0.67499   1.00
H2       0.75743    0.18825    0.68342   1.00
H2       0.79185    0.11899    0.74651   1.00
H2       0.72229    0.04067    0.73893   1.00
H2       0.80609    0.05417    0.73709   1.00
H2       0.86667    0.18651    0.69532   1.00
H2       0.87496    0.20190    0.72155   1.00
H2       0.89025    0.13879    0.71133   1.00
H2       0.71274    -0.08282   0.67070   1.00
H2       0.76886    -0.10057   0.68462   1.00
H2       0.69993    -0.10104   0.69678   1.00
H2       0.87423    0.00483    0.67741   1.00
H2       0.82900    0.02660    0.66000   1.00
H2       0.88112    0.08533    0.67880   1.00
C4       0.47099    0.49661    0.66774   1.00
C4       0.49533    0.47045    0.68339   1.00
C3       0.51359    0.54297    0.65261   1.00
C3       0.56542    0.49272    0.68656   1.00
C3       0.40035    0.47645    0.66724   1.00
C3       0.44742    0.41899    0.69667   1.00
C2       0.41845    0.54981    0.63723   1.00
C2       0.54058    0.41612    0.71565   1.00
C3       0.48817    0.56916    0.63783   1.00
C3       0.58742    0.46587    0.70212   1.00
C3       0.37547    0.50246    0.65199   1.00
C3       0.47084    0.39473    0.71280   1.00
H1       0.56430    0.55888    0.65183   1.00
H1       0.60258    0.52940    0.67774   1.00
C5       0.35497    0.43021    0.68193   1.00
C5       0.37648    0.39243    0.69394   1.00
H1       0.52150    0.60291    0.62736   1.00
H1       0.63870    0.48349    0.70359   1.00
H1       0.32436    0.48608    0.65148   1.00
H1       0.43624    0.36112    0.72295   1.00
O3       0.28975    0.41977    0.68349   1.00
O3       0.32920    0.33393    0.70386   1.00
Si1      0.27351    0.46465    0.69958   1.00
Si1      0.30778    0.25996    0.69388   1.00
C6       0.18922    0.43685    0.69158   1.00
C6       0.27498    0.43434    0.72410   1.00
C6       0.32616    0.55350    0.69629   1.00
C6       0.34852    0.25823    0.67119   1.00
C6       0.32677    0.21872    0.71321   1.00
C6       0.21868    0.21630    0.69052   1.00
C6       0.17849    0.43746    0.66810   1.00
H2       0.16288    0.38306    0.69586   1.00
C6       0.14648    0.46694    0.70123   1.00
H2       0.26303    0.38218    0.72099   1.00
C6       0.34410    0.46828    0.73595   1.00
C6       0.22056    0.42804    0.73991   1.00
H2       0.32346    0.55920    0.67991   1.00
C6       0.30209    0.60066    0.70630   1.00
C6       0.40400    0.58843    0.70180   1.00
C6       0.34365    0.29774    0.65240   1.00
C6       0.42399    0.27336    0.67192   1.00
H2       0.31957    0.20446    0.66697   1.00
H2       0.38237    0.24627    0.71374   1.00
C6       0.30326    0.22452    0.73509   1.00
C6       0.30418    0.14190    0.70991   1.00
H2       0.19853    0.19552    0.70551   1.00
C6       0.18628    0.26092    0.68505   1.00
C6       0.18651    0.15420    0.67559   1.00
H2       0.19716    0.40791    0.66003   1.00
H2       0.20507    0.48942    0.66210   1.00
H2       0.12442    0.41472    0.66434   1.00
H2       0.09254    0.42781    0.70175   1.00
H2       0.16216    0.48534    0.71661   1.00
H2       0.14960    0.50917    0.69236   1.00
H2       0.34183    0.43627    0.74869   1.00
H2       0.38639    0.47507    0.72647   1.00
H2       0.35596    0.51777    0.74211   1.00
H2       0.16883    0.39617    0.73417   1.00
H2       0.22365    0.40383    0.75393   1.00
H2       0.22795    0.47811    0.74391   1.00
H2       0.29208    0.58976    0.72247   1.00
H2       0.34004    0.65477    0.70468   1.00
H2       0.25640    0.59473    0.69903   1.00
H2       0.41349    0.60321    0.71775   1.00
H2       0.42615    0.55654    0.69885   1.00
H2       0.43304    0.63490    0.69284   1.00
H2       0.38199    0.35167    0.65295   1.00
H2       0.35222    0.27733    0.63838   1.00
H2       0.29373    0.29344    0.65111   1.00
H2       0.43851    0.26095    0.65739   1.00
H2       0.46009    0.32681    0.67494   1.00
H2       0.43126    0.24269    0.68333   1.00
H2       0.32718    0.20774    0.74637   1.00
H2       0.31830    0.27724    0.73881   1.00
H2       0.24812    0.19339    0.73692   1.00
H2       0.32032    0.13326    0.69515   1.00
H2       0.32731    0.12485    0.72139   1.00
H2       0.24891    0.10946    0.71114   1.00
H2       0.20459    0.28689    0.67054   1.00
H2       0.13069    0.23060    0.68442   1.00
H2       0.19901    0.29954    0.69662   1.00
H2       0.13100    0.12539    0.67718   1.00
H2       0.19807    0.17081    0.65981   1.00
H2       0.20470    0.11866    0.67859   1.00
C4       0.46863    -0.03206   0.16966   1.00
C4       0.49360    0.02017    0.18479   1.00
C3       0.49709    -0.07448   0.16598   1.00
C3       0.55320    0.03931    0.19646   1.00
C3       0.41274    -0.04221   0.15720   1.00
C3       0.45732    0.05551    0.18865   1.00
C2       0.41738    -0.13427   0.13809   1.00
C2       0.54165    0.12739    0.21479   1.00
C3       0.47246    -0.12392   0.15057   1.00
C3       0.57624    0.09100    0.21118   1.00
C3       0.38782    -0.09322   0.14198   1.00
C3       0.48302    0.10940    0.20293   1.00
H1       0.53640    -0.07086   0.17444   1.00
H1       0.58187    0.01657    0.19453   1.00
C5       0.38193    -0.00154   0.16009   1.00
C5       0.39598    0.03739    0.17813   1.00
H1       0.49540    -0.15276   0.14852   1.00
H1       0.61933    0.10226    0.21929   1.00
H1       0.34650    -0.10120   0.13354   1.00
H1       0.45890    0.13708    0.20459   1.00
O3       0.33601    -0.00353   0.14600   1.00
O3       0.35327    0.06108    0.18436   1.00
Si1      0.36241    0.05193    0.12753   1.00
Si1      0.29756    0.01989    0.20216   1.00
C6       0.28524    0.01493    0.11376   1.00
C6       0.38121    0.13109    0.13801   1.00
C6       0.42877    0.05324    0.11312   1.00
C6       0.29660    -0.05166   0.21327   1.00
C6       0.31747    0.08263    0.22074   1.00
C6       0.21655    -0.00343   0.19224   1.00
C6       0.24978    -0.06406   0.11033   1.00
H2       0.25155    0.02228    0.12400   1.00
C6       0.28022    0.04523    0.09283   1.00
H2       0.34882    0.11542    0.15146   1.00
C6       0.45531    0.17989    0.14582   1.00
C6       0.36147    0.17781    0.12570   1.00
H2       0.40932    -0.00098   0.11032   1.00
C6       0.44346    0.08795    0.09173   1.00
C6       0.50142    0.08193    0.12285   1.00
C6       0.28613    -0.11136   0.19903   1.00
C6       0.35402    -0.04066   0.22863   1.00
H2       0.25084    -0.07279   0.22267   1.00
H2       0.36625    0.09204    0.22681   1.00
C6       0.33061    0.15351    0.21293   1.00
C6       0.26798    0.06333    0.23925   1.00
H2       0.21306    0.04274    0.19374   1.00
C6       0.20583    -0.02118   0.16920   1.00
C6       0.15232    -0.06114   0.20329   1.00
H2       0.24079    -0.09144   0.12466   1.00
H2       0.28082    -0.07724   0.10071   1.00
H2       0.20001    -0.08364   0.10308   1.00
H2       0.22927    0.03857    0.09093   1.00
H2       0.31669    0.09934    0.09137   1.00
H2       0.28823    0.01948    0.08001   1.00
H2       0.45662    0.21942    0.15566   1.00
H2       0.47480    0.15306    0.15481   1.00
H2       0.49029    0.20547    0.13324   1.00
H2       0.30727    0.15117    0.12198   1.00
H2       0.37101    0.22272    0.13450   1.00
H2       0.39106    0.19581    0.11171   1.00
H2       0.45209    0.13981    0.09279   1.00
H2       0.48828    0.09060    0.08453   1.00
H2       0.40167    0.05886    0.08129   1.00
H2       0.53299    0.13700    0.12090   1.00
H2       0.50007    0.07172    0.13894   1.00
H2       0.52834    0.05871    0.11560   1.00
H2       0.33378    -0.10147   0.19202   1.00
H2       0.26677    -0.15874   0.20764   1.00
H2       0.24941    -0.12086   0.18702   1.00
H2       0.34119    -0.08851   0.23627   1.00
H2       0.40298    -0.02286   0.22122   1.00
H2       0.36063    -0.00453   0.24057   1.00
H2       0.35370    0.19196    0.22488   1.00
H2       0.36602    0.17156    0.20013   1.00
H2       0.28359    0.15172    0.20817   1.00
H2       0.25745    0.01518    0.24611   1.00
H2       0.29068    0.10232    0.25107   1.00
H2       0.21964    0.05942    0.23486   1.00
H2       0.21073    -0.06550   0.16556   1.00
H2       0.15585    -0.03112   0.16403   1.00
H2       0.24368    0.02161    0.16042   1.00
H2       0.10569    -0.06357   0.19769   1.00
H2       0.14746    -0.11111   0.20083   1.00
H2       0.15412    -0.05224   0.21959   1.00
C4       1.02910    0.49185    0.16871   1.00
C4       0.97842    0.46593    0.18430   1.00
C3       1.08029    0.47350    0.16667   1.00
C3       0.97762    0.42406    0.20046   1.00
C3       1.02976    0.53963    0.15445   1.00
C3       0.92518    0.48227    0.18386   1.00
C2       1.13185    0.54912    0.13737   1.00
C2       0.87503    0.41681    0.21551   1.00
C3       1.13050    0.50160    0.15151   1.00
C3       0.92701    0.39963    0.21553   1.00
C3       1.08008    0.56643    0.13904   1.00
C3       0.87635    0.45955    0.19967   1.00
H1       1.08245    0.43900    0.17609   1.00
H1       1.01402    0.41043    0.20182   1.00
C5       0.98000    0.56012    0.15564   1.00
C5       0.92120    0.52166    0.16777   1.00
H1       1.16653    0.48679    0.15087   1.00
H1       0.92866    0.36906    0.22675   1.00
H1       1.07878    0.59920    0.12858   1.00
H1       0.84118    0.47529    0.19984   1.00
O3       0.98745    0.61423    0.14413   1.00
O3       0.86342    0.52669    0.16485   1.00
Si1      1.02525    0.69092    0.15378   1.00
Si1      0.80014    0.46733    0.15190   1.00
C6       1.02914    0.73487    0.13125   1.00
C6       0.96866    0.69446    0.17144   1.00
C6       1.10762    0.71680    0.16323   1.00
C6       0.80748    0.39766    0.14296   1.00
C6       0.73137    0.43775    0.16887   1.00
C6       0.78401    0.50767    0.13154   1.00
C6       1.05568    0.71475    0.11197   1.00
H2       0.97536    0.71699    0.12826   1.00
C6       1.06543    0.81481    0.13081   1.00
H2       0.91928    0.65481    0.16581   1.00
C6       0.97237    0.67536    0.19403   1.00
C6       0.96353    0.76079    0.17255   1.00
H2       1.13032    0.70299    0.15080   1.00
C6       1.15613    0.79495    0.16697   1.00
C6       1.11577    0.68206    0.18285   1.00
C6       0.86950    0.41310    0.12905   1.00
C6       0.79969    0.34112    0.15821   1.00
H2       0.76270    0.37112    0.13323   1.00
H2       0.74326    0.41082    0.18043   1.00
C6       0.72385    0.49380    0.18058   1.00
C6       0.65896    0.38573    0.16055   1.00
H2       0.75350    0.52764    0.13828   1.00
C6       0.84725    0.57109    0.12226   1.00
C6       0.74157    0.46263    0.11315   1.00
H2       1.02591    0.66004    0.10899   1.00
H2       1.10906    0.72850    0.11370   1.00
H2       1.05158    0.74033    0.09843   1.00
H2       1.03957    0.83116    0.12009   1.00
H2       1.06557    0.83673    0.14548   1.00
H2       1.11837    0.83816    0.12576   1.00
H2       0.92642    0.66545    0.20230   1.00
H2       0.97568    0.62919    0.19527   1.00
H2       1.01596    0.71670    0.20184   1.00
H2       0.95079    0.77339    0.15781   1.00
H2       0.92308    0.75451    0.18294   1.00
H2       1.01121    0.80403    0.17793   1.00
H2       1.13197    0.81579    0.17671   1.00
H2       1.20410    0.80567    0.17413   1.00
H2       1.17088    0.82314    0.15279   1.00
H2       1.11341    0.70731    0.19668   1.00
H2       1.07749    0.62869    0.18425   1.00
H2       1.16535    0.68469    0.18276   1.00
H2       0.91508    0.42615    0.13788   1.00
H2       0.85839    0.36831    0.11996   1.00
H2       0.88157    0.45457    0.11849   1.00
H2       0.79583    0.29725    0.15005   1.00
H2       0.84307    0.35906    0.16841   1.00
H2       0.75352    0.32169    0.16734   1.00
H2       0.68756    0.47098    0.19308   1.00
H2       0.77228    0.53185    0.18727   1.00
H2       0.70568    0.52018    0.17077   1.00
H2       0.65886    0.34341    0.15261   1.00
H2       0.62245    0.36367    0.17304   1.00
H2       0.64002    0.41027    0.15024   1.00
H2       0.88344    0.55815    0.11563   1.00
H2       0.83247    0.59539    0.11057   1.00
H2       0.87369    0.60895    0.13399   1.00
H2       0.72625    0.49113    0.10314   1.00
H2       0.77101    0.44597    0.10410   1.00
H2       0.69486    0.41752    0.11809   1.00
C4       0.50837    0.53690    0.16854   1.00
C4       0.53438    0.51232    0.18415   1.00
C3       0.53327    0.60719    0.16475   1.00
C3       0.58344    0.55523    0.19869   1.00
C3       0.45369    0.48897    0.15612   1.00
C3       0.51055    0.44096    0.18545   1.00
C2       0.45077    0.58247    0.13732   1.00
C2       0.58330    0.45850    0.21556   1.00
C3       0.50505    0.62939    0.14965   1.00
C3       0.60772    0.52917    0.21384   1.00
C3       0.42678    0.51242    0.14072   1.00
C3       0.53349    0.41544    0.20136   1.00
H1       0.57280    0.64431    0.17280   1.00
H1       0.60266    0.60662    0.19877   1.00
C5       0.42645    0.41795    0.15910   1.00
C5       0.46354    0.39534    0.17100   1.00
H1       0.52483    0.68086    0.14770   1.00
H1       0.64363    0.56269    0.22383   1.00
H1       0.38884    0.47748    0.13156   1.00
H1       0.51270    0.36387    0.20286   1.00
O3       0.36682    0.37216    0.14951   1.00
O3       0.45025    0.32890    0.16949   1.00
Si1      0.29391    0.34400    0.16113   1.00
Si1      0.50076    0.31315    0.15577   1.00
C6       0.24102    0.30045    0.14028   1.00
C6       0.28890    0.28657    0.18002   1.00
C6       0.27981    0.40976    0.16974   1.00
C6       0.57204    0.38259    0.14416   1.00
C6       0.52885    0.27332    0.17300   1.00
C6       0.44991    0.25252    0.13736   1.00
C6       0.25927    0.34106    0.11980   1.00
H2       0.25228    0.25940    0.13779   1.00
C6       0.16130    0.26458    0.14202   1.00
H2       0.32274    0.26949    0.17400   1.00
C6       0.31662    0.31514    0.20169   1.00
C6       0.21890    0.22011    0.18368   1.00
H2       0.29314    0.44262    0.15639   1.00
C6       0.20480    0.38971    0.17532   1.00
C6       0.32357    0.45658    0.18779   1.00
C6       0.55897    0.42934    0.12958   1.00
C6       0.63537    0.43142    0.15739   1.00
H2       0.59136    0.35696    0.13445   1.00
H2       0.56229    0.31435    0.18326   1.00
C6       0.47275    0.21715    0.18688   1.00
C6       0.57201    0.24259    0.16435   1.00
H2       0.42734    0.20398    0.14545   1.00
C6       0.38804    0.25759    0.12914   1.00
C6       0.48619    0.24379    0.11831   1.00
H2       0.31218    0.35940    0.11545   1.00
H2       0.25190    0.38512    0.12090   1.00
H2       0.22757    0.30888    0.10737   1.00
H2       0.13753    0.21887    0.13252   1.00
H2       0.14296    0.24898    0.15742   1.00
H2       0.14163    0.29717    0.13675   1.00
H2       0.32405    0.27846    0.21052   1.00
H2       0.36595    0.36175    0.20115   1.00
H2       0.28100    0.32524    0.21006   1.00
H2       0.19942    0.19048    0.16977   1.00
H2       0.22386    0.18653    0.19463   1.00
H2       0.18101    0.23201    0.18962   1.00
H2       0.18304    0.34799    0.18629   1.00
H2       0.20168    0.43255    0.18182   1.00
H2       0.17246    0.37478    0.16195   1.00
H2       0.30115    0.43500    0.20252   1.00
H2       0.37543    0.46606    0.18802   1.00
H2       0.32684    0.50635    0.18675   1.00
H2       0.55365    0.46802    0.13788   1.00
H2       0.60179    0.45627    0.11913   1.00
H2       0.51350    0.40041    0.12036   1.00
H2       0.67840    0.46542    0.14774   1.00
H2       0.62508    0.46369    0.16727   1.00
H2       0.65306    0.40359    0.16673   1.00
H2       0.49628    0.20391    0.19923   1.00
H2       0.44081    0.23503    0.19391   1.00
H2       0.43967    0.17056    0.17848   1.00
H2       0.61395    0.27919    0.15489   1.00
H2       0.59471    0.22841    0.17672   1.00
H2       0.54062    0.19674    0.15541   1.00
H2       0.40395    0.30564    0.12130   1.00
H2       0.35696    0.21590    0.11873   1.00
H2       0.35521    0.25404    0.14164   1.00
H2       0.45117    0.19817    0.10974   1.00
H2       0.50443    0.28743    0.10808   1.00
H2       0.52947    0.23785    0.12255   1.00
C4       0.63478    0.80233    0.66374   1.00
C4       0.68702    0.82722    0.64861   1.00
C3       0.59545    0.83359    0.66831   1.00
C3       0.70934    0.88919    0.63786   1.00
C3       0.62139    0.74351    0.67525   1.00
C3       0.71902    0.78838    0.64377   1.00
C2       0.53240    0.75086    0.69525   1.00
C2       0.79404    0.87485    0.61855   1.00
C3       0.54593    0.80884    0.68370   1.00
C3       0.76092    0.91206    0.62311   1.00
C3       0.57033    0.71858    0.69045   1.00
C3       0.77290    0.81378    0.62949   1.00
H1       0.60146    0.87513    0.66054   1.00
H1       0.68908    0.91974    0.64052   1.00
C5       0.65887    0.70981    0.67143   1.00
C5       0.69760    0.72476    0.65332   1.00
H1       0.51942    0.83385    0.68643   1.00
H1       0.77457    0.95696    0.61570   1.00
H1       0.55998    0.67524    0.69820   1.00
H1       0.79822    0.78757    0.62714   1.00
O3       0.65397    0.66049    0.68468   1.00
O3       0.71795    0.68040    0.64611   1.00
Si1      0.70909    0.68130    0.70310   1.00
Si1      0.67483    0.62848    0.62769   1.00
C6       0.66838    0.60204    0.71579   1.00
C6       0.78695    0.69746    0.69227   1.00
C6       0.71430    0.74714    0.71869   1.00
C6       0.60565    0.63363    0.61723   1.00
C6       0.73696    0.64808    0.60892   1.00
C6       0.64717    0.54504    0.63632   1.00
C6       0.58972    0.56985    0.71928   1.00
H2       0.67352    0.56858    0.70488   1.00
C6       0.69718    0.59169    0.73632   1.00
H2       0.76993    0.66726    0.67838   1.00
C6       0.83883    0.77190    0.68538   1.00
C6       0.83083    0.67236    0.70377   1.00
H2       0.66060    0.73001    0.72163   1.00
C6       0.74858    0.75671    0.74000   1.00
C6       0.74664    0.82162    0.71004   1.00
C6       0.54709    0.62424    0.63180   1.00
C6       0.61999    0.69443    0.60283   1.00
H2       0.58246    0.58937    0.60719   1.00
H2       0.74914    0.69862    0.60367   1.00
C6       0.80629    0.65601    0.61632   1.00
C6       0.71542    0.60133    0.58972   1.00
H2       0.69165    0.53887    0.63435   1.00
C6       0.62910    0.53144    0.65930   1.00
C6       0.58747    0.48430    0.62464   1.00
H2       0.56281    0.56457    0.70505   1.00
H2       0.57878    0.60103    0.72957   1.00
H2       0.56763    0.51873    0.72578   1.00
H2       0.68757    0.53941    0.73735   1.00
H2       0.75178    0.62565    0.73795   1.00
H2       0.67263    0.59946    0.74950   1.00
H2       0.87727    0.77240    0.67522   1.00
H2       0.81416    0.79501    0.67699   1.00
H2       0.86561    0.80429    0.69834   1.00
H2       0.80166    0.61767    0.70674   1.00
H2       0.87496    0.68082    0.69475   1.00
H2       0.84993    0.69945    0.71812   1.00
H2       0.79931    0.76259    0.73864   1.00
H2       0.75384    0.80148    0.74798   1.00
H2       0.71775    0.71386    0.74993   1.00
H2       0.80187    0.85040    0.71206   1.00
H2       0.73684    0.82342    0.69404   1.00
H2       0.72576    0.84956    0.71798   1.00
H2       0.55952    0.67151    0.63957   1.00
H2       0.50012    0.60860    0.62327   1.00
H2       0.53550    0.58517    0.64320   1.00
H2       0.57297    0.68538    0.59541   1.00
H2       0.64016    0.74249    0.61096   1.00
H2       0.65548    0.70092    0.59070   1.00
H2       0.84504    0.67931    0.60446   1.00
H2       0.82581    0.68927    0.62959   1.00
H2       0.80161    0.60703    0.62023   1.00
H2       0.66824    0.59454    0.58311   1.00
H2       0.75468    0.62416    0.57797   1.00
H2       0.70861    0.55117    0.59325   1.00
H2       0.58647    0.53860    0.66342   1.00
H2       0.61635    0.47984    0.66365   1.00
H2       0.67275    0.56633    0.66837   1.00
H2       0.58219    0.43562    0.62941   1.00
H2       0.53879    0.48196    0.62747   1.00
H2       0.59636    0.48820    0.60832   1.00
C4       0.16760    0.36221    0.66461   1.00
C4       0.13951    0.31026    0.64941   1.00
C3       0.21292    0.36518    0.67998   1.00
C3       0.14895    0.25280    0.64916   1.00
C3       0.14887    0.41375    0.66478   1.00
C3       0.09980    0.31553    0.63344   1.00
C2       0.21952    0.46698    0.69542   1.00
C2       0.07973    0.20658    0.61838   1.00
C3       0.23789    0.41587    0.69503   1.00
C3       0.12044    0.20270    0.63397   1.00
C3       0.17561    0.46519    0.67987   1.00
C3       0.06911    0.26301    0.61879   1.00
H1       0.22931    0.33074    0.68065   1.00
H1       0.17646    0.24543    0.66007   1.00
C5       0.10377    0.41375    0.64984   1.00
C5       0.09038    0.37278    0.63227   1.00
H1       0.27012    0.41515    0.70585   1.00
H1       0.12946    0.16258    0.63447   1.00
H1       0.16322    0.50292    0.67947   1.00
H1       0.03728    0.26534    0.60822   1.00
O3       0.07699    0.45626    0.65200   1.00
O3       0.06406    0.38573    0.61501   1.00
Si1      0.00306    0.42817    0.66299   1.00
Si1      0.11566    0.42746    0.59638   1.00
C6       0.00502    0.50700    0.66421   1.00
C6       -0.05990   0.37186    0.64591   1.00
C6       -0.00098   0.39462    0.68745   1.00
C6       0.20260    0.45158    0.59886   1.00
C6       0.08005    0.37145    0.57577   1.00
C6       0.10766    0.49969    0.59161   1.00
C6       0.07286    0.56883    0.67236   1.00
H2       0.00263    0.51815    0.64821   1.00
C6       -0.05378   0.51309    0.67482   1.00
H2       -0.03440   0.38998    0.63132   1.00
C6       -0.08224   0.29443    0.64689   1.00
C6       -0.12794   0.37363    0.64417   1.00
H2       0.04618    0.43415    0.69438   1.00
C6       -0.06022   0.38594    0.70169   1.00
C6       -0.00068   0.32569    0.68983   1.00
C6       0.24288    0.49653    0.61747   1.00
C6       0.22455    0.39636    0.59657   1.00
H2       0.22536    0.48423    0.58563   1.00
H2       0.08971    0.32997    0.57931   1.00
C6       0.00085    0.33694    0.57325   1.00
C6       0.11165    0.39865    0.55435   1.00
H2       0.06163    0.48009    0.58237   1.00
C6       0.09384    0.53282    0.61040   1.00
C6       0.16548    0.55980    0.57921   1.00
H2       0.11697    0.57592    0.66365   1.00
H2       0.08138    0.56158    0.68826   1.00
H2       0.07184    0.61647    0.67117   1.00
H2       -0.06144   0.55152    0.66713   1.00
H2       -0.10225   0.46559    0.67467   1.00
H2       -0.04197   0.52934    0.69062   1.00
H2       -0.10971   0.26810    0.63311   1.00
H2       -0.03877   0.28647    0.64801   1.00
H2       -0.11612   0.26945    0.65973   1.00
H2       -0.11831   0.42465    0.64045   1.00
H2       -0.16029   0.34021    0.63201   1.00
H2       -0.15717   0.35676    0.65825   1.00
H2       -0.10975   0.35605    0.69432   1.00
H2       -0.06152   0.36050    0.71594   1.00
H2       -0.05373   0.43503    0.70613   1.00
H2       -0.05192   0.28142    0.68893   1.00
H2       0.02995    0.31860    0.67853   1.00
H2       0.02012    0.32386    0.70464   1.00
H2       0.23511    0.46580    0.63098   1.00
H2       0.29765    0.52400    0.61436   1.00
H2       0.22859    0.53465    0.62104   1.00
H2       0.28008    0.42045    0.59561   1.00
H2       0.20849    0.36152    0.60940   1.00
H2       0.20447    0.36638    0.58275   1.00
H2       -0.01768   0.29492    0.56237   1.00
H2       -0.02553   0.31523    0.58756   1.00
H2       -0.01450   0.37280    0.56783   1.00
H2       0.16706    0.42195    0.55451   1.00
H2       0.09231    0.35675    0.54340   1.00
H2       0.09864    0.43606    0.54870   1.00
H2       0.13558    0.55232    0.62131   1.00
H2       0.08558    0.57465    0.60601   1.00
H2       0.04792    0.49523    0.61809   1.00
H2       0.14979    0.59635    0.57463   1.00
H2       0.21217    0.58744    0.58814   1.00
H2       0.17761    0.54187    0.56534   1.00
C4       0.19470    0.83229    0.66454   1.00
C4       0.17078    0.86035    0.64935   1.00
C3       0.15173    0.78425    0.67928   1.00
C3       0.10285    0.84799    0.64853   1.00
C3       0.26565    0.85387    0.66538   1.00
C3       0.21679    0.90310    0.63401   1.00
C2       0.24755    0.78051    0.69540   1.00
C2       0.12674    0.92024    0.61840   1.00
C3       0.17743    0.75935    0.69436   1.00
C3       0.08123    0.87657    0.63337   1.00
C3       0.29038    0.82717    0.68047   1.00
C3       0.19475    0.93374    0.61939   1.00
H1       0.10046    0.76578    0.67946   1.00
H1       0.06719    0.81821    0.65898   1.00
C5       0.31139    0.90176    0.65108   1.00
C5       0.28466    0.91560    0.63341   1.00
H1       0.14399    0.72507    0.70471   1.00
H1       0.03135    0.86538    0.63343   1.00
H1       0.34108    0.84168    0.68054   1.00
H1       0.22942    0.96765    0.60930   1.00
O3       0.38070    0.93091    0.65395   1.00
O3       0.32562    0.94519    0.61664   1.00
Si1      0.42266    1.00383    0.66576   1.00
Si1      0.32029    0.89666    0.59761   1.00
C6       0.50123    1.00544    0.66756   1.00
C6       0.42848    1.06757    0.64916   1.00
C6       0.38933    1.00344    0.69001   1.00
C6       0.25996    0.80863    0.59904   1.00
C6       0.30020    0.93287    0.57709   1.00
C6       0.40252    0.90884    0.59351   1.00
C6       0.49737    0.93805    0.67523   1.00
H2       0.51689    1.01033    0.65170   1.00
C6       0.56346    1.06458    0.67905   1.00
H2       0.42393    1.04410    0.63436   1.00
C6       0.37093    1.08659    0.64986   1.00
C6       0.49678    1.13741    0.64840   1.00
H2       0.38298    0.95629    0.69657   1.00
C6       0.43645    1.06189    0.70500   1.00
C6       0.31826    0.99957    0.69185   1.00
C6       0.26444    0.76737    0.61741   1.00
C6       0.18238    0.78384    0.59602   1.00
H2       0.27277    0.78849    0.58576   1.00
H2       0.24794    0.92059    0.58017   1.00
C6       0.34236    1.01248    0.57543   1.00
C6       0.29981    0.90441    0.55545   1.00
H2       0.42844    0.95608    0.58479   1.00
C6       0.44760    0.92230    0.61274   1.00
C6       0.40918    0.85408    0.58077   1.00
H2       0.46271    0.89433    0.66595   1.00
H2       0.47975    0.92710    0.69094   1.00
H2       0.54723    0.94150    0.67442   1.00
H2       0.61116    1.07516    0.67177   1.00
H2       0.56211    1.11188    0.67922   1.00
H2       0.56667    1.05139    0.69479   1.00
H2       0.37243    1.11507    0.63628   1.00
H2       0.32031    1.04165    0.65030   1.00
H2       0.37684    1.11850    0.66298   1.00
H2       0.54003    1.13044    0.64494   1.00
H2       0.49560    1.17035    0.63645   1.00
H2       0.50630    1.16481    0.66275   1.00
H2       0.45502    1.11198    0.69812   1.00
H2       0.40997    1.06030    0.71906   1.00
H2       0.47980    1.05706    0.70973   1.00
H2       0.32300    1.04995    0.69133   1.00
H2       0.28253    0.96927    0.68007   1.00
H2       0.29433    0.97644    0.70634   1.00
H2       0.23894    0.77222    0.63078   1.00
H2       0.23955    0.71305    0.61374   1.00
H2       0.31691    0.78336    0.62148   1.00
H2       0.15303    0.72833    0.59446   1.00
H2       0.16083    0.79705    0.60879   1.00
H2       0.17294    0.80459    0.58226   1.00
H2       0.31876    1.03073    0.56450   1.00
H2       0.34413    1.03671    0.58994   1.00
H2       0.39465    1.03054    0.57051   1.00
H2       0.26965    0.84886    0.55501   1.00
H2       0.27713    0.92350    0.54446   1.00
H2       0.35144    0.92018    0.55028   1.00
H2       0.42557    0.87925    0.62320   1.00
H2       0.49897    0.93327    0.60879   1.00
H2       0.45297    0.96654    0.62079   1.00
H2       0.46240    0.87242    0.57670   1.00
H2       0.39088    0.80660    0.58924   1.00
H2       0.38070    0.84249    0.56660   1.00
