data_IRMOF10_interpen_symm_ligand4cp_label_c_1.

_audit_creation_method             'generated by an auxiliary program of Tobunporous'

_symmetry_space_group_name_H-M     'P 1'
_symmetry_Int_Tables_number        1
_symmetry_cell_setting             triclinic

_cell_length_a                    22.6523
_cell_length_b                    22.6523
_cell_length_c                    65.9502
_cell_angle_alpha                 90.0000
_cell_angle_beta                  90.0000
_cell_angle_gamma                 120.0000

loop_
_atom_site_label
_atom_site_fract_x
_atom_site_fract_y
_atom_site_fract_z
_atom_site_occupancy
O1       0.00000    0.00000    0.57470   1.00
Zn1      0.00000    0.00000    0.54560   1.00
Zn1      0.94843    0.04287    0.58357   1.00
Zn1      0.09443    0.05157    0.58357   1.00
Zn1      0.95713    0.90557    0.58357   1.00
O2       0.93860    0.02610    0.53560   1.00
O2       0.08750    0.06140    0.53560   1.00
O2       0.97390    0.91250    0.53560   1.00
O2       0.91300    0.07160    0.56150   1.00
O2       0.00463    0.12027    0.60077   1.00
O2       0.87413    0.98077    0.60037   1.00
O2       0.15860    0.08700    0.56150   1.00
O2       0.10663    0.12587    0.60037   1.00
O2       0.11563    0.99537    0.60077   1.00
O2       0.92840    0.84140    0.56150   1.00
O2       0.87973    0.88437    0.60077   1.00
O2       0.01923    0.89337    0.60037   1.00
C1       0.91390    0.06020    0.54330   1.00
C1       0.14630    0.08610    0.54330   1.00
C1       0.93980    0.85370    0.54330   1.00
C1       0.06663    0.14397    0.60637   1.00
C1       0.85603    0.92267    0.60637   1.00
C1       0.07733    0.93337    0.60637   1.00
O1       0.00000    0.00000    0.92530   1.00
Zn1      0.00000    0.00000    0.95440   1.00
Zn1      0.04287    0.94843    0.91643   1.00
Zn1      0.05157    0.09443    0.91643   1.00
Zn1      0.90557    0.95713    0.91643   1.00
O2       0.02610    0.93860    0.96440   1.00
O2       0.06140    0.08750    0.96440   1.00
O2       0.91250    0.97390    0.96440   1.00
O2       0.07160    0.91300    0.93850   1.00
O2       0.12027    0.00463    0.89923   1.00
O2       0.98077    0.87413    0.89963   1.00
O2       0.08700    0.15860    0.93850   1.00
O2       0.12587    0.10663    0.89963   1.00
O2       0.99537    0.11563    0.89923   1.00
O2       0.84140    0.92840    0.93850   1.00
O2       0.88437    0.87973    0.89923   1.00
O2       0.89337    0.01923    0.89963   1.00
C1       0.06020    0.91390    0.95670   1.00
C1       0.08610    0.14630    0.95670   1.00
C1       0.85370    0.93980    0.95670   1.00
C1       0.14397    0.06663    0.89363   1.00
C1       0.92267    0.85603    0.89363   1.00
C1       0.93337    0.07733    0.89363   1.00
O1       0.00000    0.00000    0.42530   1.00
Zn1      0.00000    0.00000    0.45440   1.00
Zn1      0.05157    0.95713    0.41643   1.00
Zn1      0.90557    0.94843    0.41643   1.00
Zn1      0.04287    0.09443    0.41643   1.00
O2       0.06140    0.97390    0.46440   1.00
O2       0.91250    0.93860    0.46440   1.00
O2       0.02610    0.08750    0.46440   1.00
O2       0.08700    0.92840    0.43850   1.00
O2       0.99537    0.87973    0.39923   1.00
O2       0.12587    0.01923    0.39963   1.00
O2       0.84140    0.91300    0.43850   1.00
O2       0.89337    0.87413    0.39963   1.00
O2       0.88437    0.00463    0.39923   1.00
O2       0.07160    0.15860    0.43850   1.00
O2       0.12027    0.11563    0.39923   1.00
O2       0.98077    0.10663    0.39963   1.00
C1       0.08610    0.93980    0.45670   1.00
C1       0.85370    0.91390    0.45670   1.00
C1       0.06020    0.14630    0.45670   1.00
C1       0.93337    0.85603    0.39363   1.00
C1       0.14397    0.07733    0.39363   1.00
C1       0.92267    0.06663    0.39363   1.00
O1       0.00000    0.00000    0.07470   1.00
Zn1      0.00000    0.00000    0.04560   1.00
Zn1      0.95713    0.05157    0.08357   1.00
Zn1      0.94843    0.90557    0.08357   1.00
Zn1      0.09443    0.04287    0.08357   1.00
O2       0.97390    0.06140    0.03560   1.00
O2       0.93860    0.91250    0.03560   1.00
O2       0.08750    0.02610    0.03560   1.00
O2       0.92840    0.08700    0.06150   1.00
O2       0.87973    0.99537    0.10077   1.00
O2       0.01923    0.12587    0.10037   1.00
O2       0.91300    0.84140    0.06150   1.00
O2       0.87413    0.89337    0.10037   1.00
O2       0.00463    0.88437    0.10077   1.00
O2       0.15860    0.07160    0.06150   1.00
O2       0.11563    0.12027    0.10077   1.00
O2       0.10663    0.98077    0.10037   1.00
C1       0.93980    0.08610    0.04330   1.00
C1       0.91390    0.85370    0.04330   1.00
C1       0.14630    0.06020    0.04330   1.00
C1       0.85603    0.93337    0.10637   1.00
C1       0.07733    0.14397    0.10637   1.00
C1       0.06663    0.92267    0.10637   1.00
O1       0.66667    0.33333    0.90803   1.00
Zn1      0.66667    0.33333    0.87893   1.00
Zn1      0.61510    0.37620    0.91690   1.00
Zn1      0.76110    0.38490    0.91690   1.00
Zn1      0.62380    0.23890    0.91690   1.00
O2       0.60527    0.35943    0.86893   1.00
O2       0.75417    0.39473    0.86893   1.00
O2       0.64057    0.24583    0.86893   1.00
O2       0.57967    0.40493    0.89483   1.00
O2       0.67130    0.45360    0.93410   1.00
O2       0.54080    0.31410    0.93370   1.00
O2       0.82527    0.42033    0.89483   1.00
O2       0.77330    0.45920    0.93370   1.00
O2       0.78230    0.32870    0.93410   1.00
O2       0.59507    0.17473    0.89483   1.00
O2       0.54640    0.21770    0.93410   1.00
O2       0.68590    0.22670    0.93370   1.00
C1       0.58057    0.39353    0.87663   1.00
C1       0.81297    0.41943    0.87663   1.00
C1       0.60647    0.18703    0.87663   1.00
C1       0.73330    0.47730    0.93970   1.00
C1       0.52270    0.25600    0.93970   1.00
C1       0.74400    0.26670    0.93970   1.00
O1       0.66667    0.33333    0.25863   1.00
Zn1      0.66667    0.33333    0.28773   1.00
Zn1      0.70953    0.28177    0.24977   1.00
Zn1      0.71823    0.42777    0.24977   1.00
Zn1      0.57223    0.29047    0.24977   1.00
O2       0.69277    0.27193    0.29773   1.00
O2       0.72807    0.42083    0.29773   1.00
O2       0.57917    0.30723    0.29773   1.00
O2       0.73827    0.24633    0.27183   1.00
O2       0.78693    0.33797    0.23257   1.00
O2       0.64743    0.20747    0.23297   1.00
O2       0.75367    0.49193    0.27183   1.00
O2       0.79253    0.43997    0.23297   1.00
O2       0.66203    0.44897    0.23257   1.00
O2       0.50807    0.26173    0.27183   1.00
O2       0.55103    0.21307    0.23257   1.00
O2       0.56003    0.35257    0.23297   1.00
C1       0.72687    0.24723    0.29003   1.00
C1       0.75277    0.47963    0.29003   1.00
C1       0.52037    0.27313    0.29003   1.00
C1       0.81063    0.39997    0.22697   1.00
C1       0.58933    0.18937    0.22697   1.00
C1       0.60003    0.41067    0.22697   1.00
O1       0.66667    0.33333    0.75863   1.00
Zn1      0.66667    0.33333    0.78773   1.00
Zn1      0.71823    0.29047    0.74977   1.00
Zn1      0.57223    0.28177    0.74977   1.00
Zn1      0.70953    0.42777    0.74977   1.00
O2       0.72807    0.30723    0.79773   1.00
O2       0.57917    0.27193    0.79773   1.00
O2       0.69277    0.42083    0.79773   1.00
O2       0.75367    0.26173    0.77183   1.00
O2       0.66203    0.21307    0.73257   1.00
O2       0.79253    0.35257    0.73297   1.00
O2       0.50807    0.24633    0.77183   1.00
O2       0.56003    0.20747    0.73297   1.00
O2       0.55103    0.33797    0.73257   1.00
O2       0.73827    0.49193    0.77183   1.00
O2       0.78693    0.44897    0.73257   1.00
O2       0.64743    0.43997    0.73297   1.00
C1       0.75277    0.27313    0.79003   1.00
C1       0.52037    0.24723    0.79003   1.00
C1       0.72687    0.47963    0.79003   1.00
C1       0.60003    0.18937    0.72697   1.00
C1       0.81063    0.41067    0.72697   1.00
C1       0.58933    0.39997    0.72697   1.00
O1       0.66667    0.33333    0.40803   1.00
Zn1      0.66667    0.33333    0.37893   1.00
Zn1      0.62380    0.38490    0.41690   1.00
Zn1      0.61510    0.23890    0.41690   1.00
Zn1      0.76110    0.37620    0.41690   1.00
O2       0.64057    0.39473    0.36893   1.00
O2       0.60527    0.24583    0.36893   1.00
O2       0.75417    0.35943    0.36893   1.00
O2       0.59507    0.42033    0.39483   1.00
O2       0.54640    0.32870    0.43410   1.00
O2       0.68590    0.45920    0.43370   1.00
O2       0.57967    0.17473    0.39483   1.00
O2       0.54080    0.22670    0.43370   1.00
O2       0.67130    0.21770    0.43410   1.00
O2       0.82527    0.40493    0.39483   1.00
O2       0.78230    0.45360    0.43410   1.00
O2       0.77330    0.31410    0.43370   1.00
C1       0.60647    0.41943    0.37663   1.00
C1       0.58057    0.18703    0.37663   1.00
C1       0.81297    0.39353    0.37663   1.00
C1       0.52270    0.26670    0.43970   1.00
C1       0.74400    0.47730    0.43970   1.00
C1       0.73330    0.25600    0.43970   1.00
O1       0.33333    0.66667    0.24137   1.00
Zn1      0.33333    0.66667    0.21227   1.00
Zn1      0.28177    0.70953    0.25023   1.00
Zn1      0.42777    0.71823    0.25023   1.00
Zn1      0.29047    0.57223    0.25023   1.00
O2       0.27193    0.69277    0.20227   1.00
O2       0.42083    0.72807    0.20227   1.00
O2       0.30723    0.57917    0.20227   1.00
O2       0.24633    0.73827    0.22817   1.00
O2       0.33797    0.78693    0.26743   1.00
O2       0.20747    0.64743    0.26703   1.00
O2       0.49193    0.75367    0.22817   1.00
O2       0.43997    0.79253    0.26703   1.00
O2       0.44897    0.66203    0.26743   1.00
O2       0.26173    0.50807    0.22817   1.00
O2       0.21307    0.55103    0.26743   1.00
O2       0.35257    0.56003    0.26703   1.00
C1       0.24723    0.72687    0.20997   1.00
C1       0.47963    0.75277    0.20997   1.00
C1       0.27313    0.52037    0.20997   1.00
C1       0.39997    0.81063    0.27303   1.00
C1       0.18937    0.58933    0.27303   1.00
C1       0.41067    0.60003    0.27303   1.00
O1       0.33333    0.66667    0.59197   1.00
Zn1      0.33333    0.66667    0.62107   1.00
Zn1      0.37620    0.61510    0.58310   1.00
Zn1      0.38490    0.76110    0.58310   1.00
Zn1      0.23890    0.62380    0.58310   1.00
O2       0.35943    0.60527    0.63107   1.00
O2       0.39473    0.75417    0.63107   1.00
O2       0.24583    0.64057    0.63107   1.00
O2       0.40493    0.57967    0.60517   1.00
O2       0.45360    0.67130    0.56590   1.00
O2       0.31410    0.54080    0.56630   1.00
O2       0.42033    0.82527    0.60517   1.00
O2       0.45920    0.77330    0.56630   1.00
O2       0.32870    0.78230    0.56590   1.00
O2       0.17473    0.59507    0.60517   1.00
O2       0.21770    0.54640    0.56590   1.00
O2       0.22670    0.68590    0.56630   1.00
C1       0.39353    0.58057    0.62337   1.00
C1       0.41943    0.81297    0.62337   1.00
C1       0.18703    0.60647    0.62337   1.00
C1       0.47730    0.73330    0.56030   1.00
C1       0.25600    0.52270    0.56030   1.00
C1       0.26670    0.74400    0.56030   1.00
O1       0.33333    0.66667    0.09197   1.00
Zn1      0.33333    0.66667    0.12107   1.00
Zn1      0.38490    0.62380    0.08310   1.00
Zn1      0.23890    0.61510    0.08310   1.00
Zn1      0.37620    0.76110    0.08310   1.00
O2       0.39473    0.64057    0.13107   1.00
O2       0.24583    0.60527    0.13107   1.00
O2       0.35943    0.75417    0.13107   1.00
O2       0.42033    0.59507    0.10517   1.00
O2       0.32870    0.54640    0.06590   1.00
O2       0.45920    0.68590    0.06630   1.00
O2       0.17473    0.57967    0.10517   1.00
O2       0.22670    0.54080    0.06630   1.00
O2       0.21770    0.67130    0.06590   1.00
O2       0.40493    0.82527    0.10517   1.00
O2       0.45360    0.78230    0.06590   1.00
O2       0.31410    0.77330    0.06630   1.00
C1       0.41943    0.60647    0.12337   1.00
C1       0.18703    0.58057    0.12337   1.00
C1       0.39353    0.81297    0.12337   1.00
C1       0.26670    0.52270    0.06030   1.00
C1       0.47730    0.74400    0.06030   1.00
C1       0.25600    0.73330    0.06030   1.00
O1       0.33333    0.66667    0.74137   1.00
Zn1      0.33333    0.66667    0.71227   1.00
Zn1      0.29047    0.71823    0.75023   1.00
Zn1      0.28177    0.57223    0.75023   1.00
Zn1      0.42777    0.70953    0.75023   1.00
O2       0.30723    0.72807    0.70227   1.00
O2       0.27193    0.57917    0.70227   1.00
O2       0.42083    0.69277    0.70227   1.00
O2       0.26173    0.75367    0.72817   1.00
O2       0.21307    0.66203    0.76743   1.00
O2       0.35257    0.79253    0.76703   1.00
O2       0.24633    0.50807    0.72817   1.00
O2       0.20747    0.56003    0.76703   1.00
O2       0.33797    0.55103    0.76743   1.00
O2       0.49193    0.73827    0.72817   1.00
O2       0.44897    0.78693    0.76743   1.00
O2       0.43997    0.64743    0.76703   1.00
C1       0.27313    0.75277    0.70997   1.00
C1       0.24723    0.52037    0.70997   1.00
C1       0.47963    0.72687    0.70997   1.00
C1       0.18937    0.60003    0.77303   1.00
C1       0.41067    0.81063    0.77303   1.00
C1       0.39997    0.58933    0.77303   1.00
C4       0.83128    0.62599    0.48959   1.00
C4       0.85827    0.68089    0.50384   1.00
C3       0.87344    0.61573    0.47565   1.00
C3       0.92968    0.72497    0.50661   1.00
C3       0.75950    0.57911    0.48901   1.00
C3       0.81287    0.69286    0.51593   1.00
C2       0.77718    0.51304    0.46144   1.00
C2       0.91290    0.79399    0.53193   1.00
C3       0.84738    0.56084    0.46207   1.00
C3       0.95628    0.78002    0.52014   1.00
C3       0.73505    0.52366    0.47502   1.00
C3       0.84202    0.74971    0.52945   1.00
H1       0.92458    0.64816    0.47472   1.00
H1       0.96505    0.71831    0.49904   1.00
C5       0.71418    0.58844    0.50208   1.00
C5       0.74052    0.64849    0.51442   1.00
H1       0.88051    0.55613    0.45247   1.00
H1       1.00827    0.81008    0.52138   1.00
H1       0.68440    0.48901    0.47426   1.00
H1       0.81138    0.76015    0.53820   1.00
C6       0.63940    0.53453    0.50284   1.00
C6       0.69299    0.66597    0.52568   1.00
H2       0.63485    0.48431    0.50326   1.00
H2       0.71110    0.72023    0.52392   1.00
H2       0.61622    0.53540    0.51719   1.00
H2       0.64316    0.64335    0.51851   1.00
C6       0.59677    0.54057    0.48505   1.00
C6       0.68361    0.64444    0.54858   1.00
H2       0.62475    0.54969    0.47081   1.00
H2       0.73317    0.65841    0.55520   1.00
C6       0.52289    0.47937    0.48165   1.00
C6       0.64825    0.67310    0.56272   1.00
H2       0.59347    0.58649    0.48764   1.00
H2       0.65426    0.58879    0.54919   1.00
C6       0.52358    0.41429    0.47466   1.00
C6       0.69238    0.75153    0.56530   1.00
C6       0.47878    0.46305    0.50104   1.00
C6       0.57687    0.65502    0.55467   1.00
C6       0.48842    0.49895    0.46463   1.00
C6       0.63891    0.64047    0.58404   1.00
H2       0.55524    0.42442    0.46118   1.00
H2       0.74353    0.76606    0.57065   1.00
H2       0.54337    0.39520    0.48645   1.00
H2       0.69753    0.77805    0.55106   1.00
H2       0.47227    0.37339    0.47098   1.00
H2       0.66961    0.77037    0.57626   1.00
H2       0.42612    0.42365    0.49810   1.00
H2       0.55068    0.67094    0.56536   1.00
H2       0.49818    0.44447    0.51311   1.00
H2       0.58088    0.68058    0.54030   1.00
H2       0.47861    0.50842    0.50652   1.00
H2       0.54522    0.60018    0.55232   1.00
H2       0.51724    0.51031    0.45049   1.00
H2       0.68802    0.65232    0.59052   1.00
H2       0.43673    0.45754    0.46159   1.00
H2       0.61476    0.65929    0.59453   1.00
H2       0.48516    0.54385    0.46884   1.00
H2       0.60697    0.58509    0.58329   1.00
C4       0.36577    0.19216    0.48660   1.00
C4       0.30759    0.16380    0.49965   1.00
C3       0.42023    0.17839    0.48913   1.00
C3       0.29637    0.11421    0.51474   1.00
C3       0.37058    0.23616    0.47034   1.00
C3       0.25816    0.18516    0.49772   1.00
C2       0.48186    0.24679    0.45962   1.00
C2       0.19169    0.10887    0.52670   1.00
C3       0.47639    0.20453    0.47601   1.00
C3       0.24042    0.08777    0.52794   1.00
C3       0.42843    0.26143    0.45726   1.00
C3       0.20209    0.15727    0.51153   1.00
H1       0.42147    0.14940    0.50071   1.00
H1       0.32807    0.09494    0.51658   1.00
C5       0.31874    0.25418    0.46755   1.00
C5       0.26519    0.23279    0.48225   1.00
H1       0.51384    0.19247    0.47860   1.00
H1       0.23538    0.05234    0.53856   1.00
H1       0.43343    0.29249    0.44545   1.00
H1       0.16614    0.17156    0.51073   1.00
C6       0.32078    0.29478    0.44906   1.00
C6       0.21658    0.26042    0.48177   1.00
H2       0.33309    0.27437    0.43577   1.00
H2       0.20943    0.27326    0.49716   1.00
H2       0.27041    0.28612    0.44517   1.00
H2       0.23914    0.30981    0.47433   1.00
C6       0.37074    0.37336    0.45144   1.00
C6       0.14680    0.21086    0.47132   1.00
H2       0.41860    0.38216    0.45816   1.00
H2       0.12847    0.15880    0.47662   1.00
C6       0.38856    0.41844    0.43191   1.00
C6       0.08739    0.22672    0.47390   1.00
H2       0.34869    0.39252    0.46257   1.00
H2       0.15643    0.20990    0.45512   1.00
C6       0.43003    0.40180    0.41652   1.00
C6       0.06299    0.21835    0.49625   1.00
C6       0.32363    0.41004    0.42138   1.00
C6       0.10835    0.29954    0.46650   1.00
C6       0.43337    0.49441    0.43812   1.00
C6       0.02590    0.17518    0.46089   1.00
H2       0.47568    0.40618    0.42358   1.00
H2       0.04887    0.16777    0.50203   1.00
H2       0.39998    0.35027    0.41054   1.00
H2       0.10253    0.25597    0.50609   1.00
H2       0.44624    0.43663    0.40361   1.00
H2       0.01856    0.22485    0.49765   1.00
H2       0.33679    0.44523    0.40865   1.00
H2       0.06516    0.30834    0.46701   1.00
H2       0.29247    0.35852    0.41547   1.00
H2       0.14842    0.33801    0.47605   1.00
H2       0.29277    0.42008    0.43201   1.00
H2       0.12709    0.30726    0.45093   1.00
H2       0.48036    0.50329    0.44545   1.00
H2       0.00858    0.12284    0.46565   1.00
H2       0.44756    0.52799    0.42494   1.00
H2       -0.01717   0.18392    0.46230   1.00
H2       0.40632    0.50967    0.44868   1.00
H2       0.03954    0.17957    0.44486   1.00
C4       0.80684    0.17182    0.48631   1.00
C4       0.83459    0.14151    0.49939   1.00
C3       0.83200    0.24342    0.48592   1.00
C3       0.89386    0.18111    0.51142   1.00
C3       0.75173    0.12968    0.47302   1.00
C3       0.80257    0.06889    0.50068   1.00
C2       0.75299    0.23354    0.45914   1.00
C2       0.88882    0.08029    0.52661   1.00
C3       0.80622    0.27349    0.47270   1.00
C3       0.92004    0.15157    0.52470   1.00
C3       0.72717    0.16236    0.45970   1.00
C3       0.83062    0.04082    0.51447   1.00
H1       0.86955    0.27634    0.49538   1.00
H1       0.92063    0.23291    0.51083   1.00
C5       0.72236    0.05700    0.47332   1.00
C5       0.74445    0.02634    0.48831   1.00
H1       0.82675    0.32547    0.47311   1.00
H1       0.96279    0.18295    0.53302   1.00
H1       0.68836    0.13416    0.44993   1.00
H1       0.80900    -0.01059   0.51591   1.00
C6       0.66910    0.01374    0.45771   1.00
C6       0.70678    -0.05017   0.49139   1.00
H2       0.68514    0.03796    0.44289   1.00
H2       0.70083    -0.06112   0.50759   1.00
H2       0.66758    -0.03442   0.45516   1.00
H2       0.65402    -0.07351   0.48645   1.00
C6       0.59569    -0.00097   0.46331   1.00
C6       0.74152    -0.08640   0.48045   1.00
H2       0.59827    0.04587    0.46875   1.00
H2       0.79660    -0.05730   0.48295   1.00
C6       0.53974    -0.03187   0.44640   1.00
C6       0.71626    -0.16248   0.48616   1.00
H2       0.57810    -0.03562   0.47629   1.00
H2       0.73485    -0.08371   0.46413   1.00
C6       0.55547    0.01906    0.42871   1.00
C6       0.73386    -0.16951   0.50845   1.00
C6       0.53169    -0.09927   0.43788   1.00
C6       0.63844    -0.20818   0.48285   1.00
C6       0.47042    -0.04780   0.45579   1.00
C6       0.75301    -0.18944   0.47228   1.00
H2       0.56255    0.06762    0.43427   1.00
H2       0.78834    -0.13698   0.51137   1.00
H2       0.60153    0.02932    0.42060   1.00
H2       0.70633    -0.15535   0.51911   1.00
H2       0.51392    -0.00105   0.41770   1.00
H2       0.72033    -0.22195   0.51186   1.00
H2       0.48934    -0.12288   0.42717   1.00
H2       0.62218    -0.26177   0.48548   1.00
H2       0.57760    -0.09017   0.42987   1.00
H2       0.60994    -0.19434   0.49326   1.00
H2       0.52200    -0.13553   0.45009   1.00
H2       0.62448    -0.20307   0.46738   1.00
H2       0.47312    -0.00164   0.46186   1.00
H2       0.80824    -0.15929   0.47420   1.00
H2       0.42969    -0.06912   0.44451   1.00
H2       0.73735    -0.24240   0.47579   1.00
H2       0.45580    -0.08463   0.46813   1.00
H2       0.74145    -0.18709   0.45633   1.00
C4       0.62591    0.83108    0.01039   1.00
C4       0.68083    0.85802    -0.00386   1.00
C3       0.61471    0.87344    0.02397   1.00
C3       0.72393    0.92940    -0.00699   1.00
C3       0.57999    0.75914    0.01131   1.00
C3       0.69383    0.81258    -0.01557   1.00
C2       0.51291    0.77699    0.03851   1.00
C2       0.79398    0.91263    -0.03193   1.00
C3       0.55978    0.84739    0.03755   1.00
C3       0.77901    0.95600    -0.02051   1.00
C3       0.52448    0.73469    0.02527   1.00
C3       0.75067    0.84174    -0.02910   1.00
H1       0.64644    0.92476    0.02466   1.00
H1       0.71651    0.96474    0.00030   1.00
C5       0.59032    0.71367    -0.00139   1.00
C5       0.65045    0.74019    -0.01371   1.00
H1       0.55437    0.88066    0.04689   1.00
H1       0.80834    1.00798    -0.02201   1.00
H1       0.49049    0.68391    0.02627   1.00
H1       0.76183    0.81110    -0.03759   1.00
C6       0.53736    0.63855    -0.00181   1.00
C6       0.66905    0.69280    -0.02456   1.00
H2       0.48674    0.63301    -0.00238   1.00
H2       0.72348    0.71192    -0.02274   1.00
H2       0.53872    0.61475    -0.01598   1.00
H2       0.64718    0.64347    -0.01711   1.00
C6       0.54428    0.59754    0.01630   1.00
C6       0.64752    0.68171    -0.04746   1.00
H2       0.55292    0.62628    0.03037   1.00
H2       0.66066    0.73064    -0.05439   1.00
C6       0.48394    0.52341    0.02002   1.00
C6       0.67717    0.64642    -0.06124   1.00
H2       0.59072    0.59504    0.01390   1.00
H2       0.59191    0.65152    -0.04807   1.00
C6       0.41821    0.52323    0.02676   1.00
C6       0.75549    0.69151    -0.06385   1.00
C6       0.46835    0.47826    0.00089   1.00
C6       0.66031    0.57590    -0.05275   1.00
C6       0.50437    0.49071    0.03735   1.00
C6       0.64443    0.63524    -0.08261   1.00
H2       0.42780    0.55558    0.04005   1.00
H2       0.76917    0.74209    -0.06952   1.00
H2       0.39856    0.54172    0.01476   1.00
H2       0.78215    0.69799    -0.04956   1.00
H2       0.37791    0.47186    0.03067   1.00
H2       0.77498    0.66867    -0.07458   1.00
H2       0.42960    0.42553    0.00406   1.00
H2       0.67692    0.54965    -0.06318   1.00
H2       0.44922    0.49636    -0.01139   1.00
H2       0.68602    0.58124    -0.03832   1.00
H2       0.51417    0.47865    -0.00443   1.00
H2       0.60556    0.54363    -0.05036   1.00
H2       0.51525    0.52032    0.05132   1.00
H2       0.65544    0.68369    -0.08940   1.00
H2       0.46357    0.43891    0.04061   1.00
H2       0.66393    0.61107    -0.09286   1.00
H2       0.54977    0.48812    0.03333   1.00
H2       0.58915    0.60257    -0.08183   1.00
C4       0.19216    0.36576    0.01340   1.00
C4       0.16380    0.30759    0.00035   1.00
C3       0.17835    0.42020    0.01088   1.00
C3       0.11418    0.29634    -0.01473   1.00
C3       0.23621    0.37060    0.02965   1.00
C3       0.18521    0.25818    0.00227   1.00
C2       0.24679    0.48185    0.04038   1.00
C2       0.10888    0.19169    -0.02670   1.00
C3       0.20449    0.47636    0.02400   1.00
C3       0.08773    0.24039    -0.02793   1.00
C3       0.26147    0.42845    0.04273   1.00
C3       0.15732    0.20212    -0.01154   1.00
H1       0.14932    0.42142    -0.00069   1.00
H1       0.09488    0.32802    -0.01656   1.00
C5       0.25426    0.31879    0.03243   1.00
C5       0.23288    0.26524    0.01773   1.00
H1       0.19240    0.51379    0.02141   1.00
H1       0.05228    0.23533    -0.03854   1.00
H1       0.29256    0.43347    0.05453   1.00
H1       0.17164    0.16618    -0.01074   1.00
C6       0.29492    0.32085    0.05092   1.00
C6       0.26054    0.21666    0.01820   1.00
H2       0.27452    0.33314    0.06421   1.00
H2       0.27337    0.20953    0.00280   1.00
H2       0.28629    0.27049    0.05480   1.00
H2       0.30995    0.23925    0.02563   1.00
C6       0.37348    0.37085    0.04852   1.00
C6       0.21104    0.14688    0.02865   1.00
H2       0.38224    0.41870    0.04180   1.00
H2       0.15896    0.12852    0.02336   1.00
C6       0.41860    0.38869    0.06805   1.00
C6       0.22693    0.08749    0.02606   1.00
H2       0.39264    0.34882    0.03738   1.00
H2       0.21010    0.15650    0.04486   1.00
C6       0.40197    0.43014    0.08345   1.00
C6       0.21853    0.06310    0.00372   1.00
C6       0.41027    0.32377    0.07856   1.00
C6       0.29978    0.10849    0.03345   1.00
C6       0.49456    0.43353    0.06182   1.00
C6       0.17544    0.02599    0.03908   1.00
H2       0.40630    0.47578    0.07639   1.00
H2       0.16794    0.04895    -0.00206   1.00
H2       0.35045    0.40006    0.08943   1.00
H2       0.25612    0.10265    -0.00613   1.00
H2       0.43681    0.44637    0.09634   1.00
H2       0.22506    0.01869    0.00230   1.00
H2       0.44548    0.33695    0.09130   1.00
H2       0.30860    0.06533    0.03294   1.00
H2       0.35875    0.29259    0.08449   1.00
H2       0.33821    0.14857    0.02389   1.00
H2       0.42030    0.29293    0.06793   1.00
H2       0.30751    0.12723    0.04902   1.00
H2       0.50339    0.48051    0.05449   1.00
H2       0.12308    0.00865    0.03433   1.00
H2       0.52816    0.44774    0.07500   1.00
H2       0.18421    -0.01706   0.03766   1.00
H2       0.50982    0.40650    0.05125   1.00
H2       0.17985    0.03963    0.05511   1.00
C4       0.17182    0.80684    0.01369   1.00
C4       0.14151    0.83459    0.00061   1.00
C3       0.24342    0.83200    0.01408   1.00
C3       0.18111    0.89386    -0.01142   1.00
C3       0.12968    0.75173    0.02698   1.00
C3       0.06889    0.80257    -0.00068   1.00
C2       0.23354    0.75299    0.04086   1.00
C2       0.08029    0.88882    -0.02661   1.00
C3       0.27349    0.80622    0.02730   1.00
C3       0.15157    0.92004    -0.02470   1.00
C3       0.16236    0.72717    0.04030   1.00
C3       0.04082    0.83062    -0.01447   1.00
H1       0.27634    0.86955    0.00462   1.00
H1       0.23291    0.92063    -0.01083   1.00
C5       0.05700    0.72236    0.02668   1.00
C5       0.02634    0.74445    0.01169   1.00
H1       0.32547    0.82675    0.02689   1.00
H1       0.18295    0.96279    -0.03302   1.00
H1       0.13416    0.68836    0.05007   1.00
H1       -0.01059   0.80900    -0.01591   1.00
C6       0.01374    0.66910    0.04229   1.00
C6       -0.05017   0.70678    0.00861   1.00
H2       0.03796    0.68514    0.05711   1.00
H2       -0.06112   0.70083    -0.00759   1.00
H2       -0.03442   0.66758    0.04484   1.00
H2       -0.07351   0.65402    0.01355   1.00
C6       -0.00097   0.59569    0.03669   1.00
C6       -0.08640   0.74152    0.01955   1.00
H2       0.04587    0.59827    0.03125   1.00
H2       -0.05730   0.79660    0.01705   1.00
C6       -0.03187   0.53974    0.05360   1.00
C6       -0.16248   0.71626    0.01384   1.00
H2       -0.03562   0.57810    0.02371   1.00
H2       -0.08371   0.73485    0.03587   1.00
C6       0.01906    0.55547    0.07129   1.00
C6       -0.16951   0.73386    -0.00845   1.00
C6       -0.09927   0.53169    0.06212   1.00
C6       -0.20818   0.63844    0.01715   1.00
C6       -0.04780   0.47042    0.04421   1.00
C6       -0.18944   0.75301    0.02772   1.00
H2       0.06762    0.56255    0.06573   1.00
H2       -0.13698   0.78834    -0.01137   1.00
H2       0.02932    0.60153    0.07940   1.00
H2       -0.15535   0.70633    -0.01911   1.00
H2       -0.00105   0.51392    0.08230   1.00
H2       -0.22195   0.72033    -0.01186   1.00
H2       -0.12288   0.48934    0.07283   1.00
H2       -0.26177   0.62218    0.01452   1.00
H2       -0.09017   0.57760    0.07013   1.00
H2       -0.19434   0.60994    0.00674   1.00
H2       -0.13553   0.52200    0.04991   1.00
H2       -0.20307   0.62448    0.03262   1.00
H2       -0.00164   0.47312    0.03814   1.00
H2       -0.15929   0.80824    0.02580   1.00
H2       -0.06912   0.42969    0.05549   1.00
H2       -0.24240   0.73735    0.02421   1.00
H2       -0.08463   0.45580    0.03187   1.00
H2       -0.18709   0.74145    0.04367   1.00
C4       0.16908    0.36433    0.51394   1.00
C4       0.14218    0.30708    0.50054   1.00
C3       0.12658    0.38373    0.52454   1.00
C3       0.07084    0.26112    0.49846   1.00
C3       0.24111    0.40436    0.51700   1.00
C3       0.18761    0.29445    0.48869   1.00
C2       0.22316    0.47809    0.54179   1.00
C2       0.08758    0.19320    0.47273   1.00
C3       0.15264    0.43863    0.53812   1.00
C3       0.04424    0.20609    0.48491   1.00
C3       0.26557    0.45965    0.53105   1.00
C3       0.15844    0.23807    0.47500   1.00
H1       0.07515    0.35911    0.52264   1.00
H1       0.03556    0.26551    0.50685   1.00
C5       0.28667    0.38907    0.50611   1.00
C5       0.26001    0.33727    0.49076   1.00
H1       0.11927    0.44984    0.54536   1.00
H1       -0.00771   0.17497    0.48406   1.00
H1       0.31642    0.48900    0.53374   1.00
H1       0.18907    0.22773    0.46621   1.00
C6       0.36203    0.42719    0.51110   1.00
C6       0.30725    0.32775    0.47660   1.00
H2       0.36832    0.43113    0.52752   1.00
H2       0.28736    0.32064    0.46120   1.00
H2       0.38629    0.39771    0.50717   1.00
H2       0.35618    0.37431    0.47506   1.00
C6       0.40176    0.49879    0.50062   1.00
C6       0.31966    0.26831    0.48319   1.00
H2       0.37245    0.52500    0.50200   1.00
H2       0.27124    0.22397    0.48762   1.00
C6       0.47606    0.54877    0.50811   1.00
C6       0.35486    0.24388    0.46750   1.00
H2       0.40364    0.49039    0.48437   1.00
H2       0.35049    0.28435    0.49699   1.00
C6       0.47693    0.57212    0.53028   1.00
C6       0.30906    0.21005    0.44869   1.00
C6       0.52200    0.51629    0.50648   1.00
C6       0.42469    0.30338    0.46047   1.00
C6       0.50737    0.61336    0.49449   1.00
C6       0.36746    0.18954    0.47784   1.00
H2       0.44406    0.59429    0.53201   1.00
H2       0.25892    0.16851    0.45317   1.00
H2       0.45945    0.52973    0.54087   1.00
H2       0.30155    0.24661    0.43997   1.00
H2       0.52833    0.61050    0.53488   1.00
H2       0.33192    0.18900    0.43853   1.00
H2       0.57475    0.55313    0.51035   1.00
H2       0.45097    0.28497    0.45069   1.00
H2       0.50490    0.47327    0.51684   1.00
H2       0.41832    0.34092    0.45187   1.00
H2       0.52115    0.49811    0.49110   1.00
H2       0.45744    0.32900    0.47347   1.00
H2       0.47717    0.63872    0.49525   1.00
H2       0.31955    0.14595    0.48292   1.00
H2       0.55924    0.65012    0.49922   1.00
H2       0.39162    0.17052    0.46742   1.00
H2       0.50943    0.60037    0.47866   1.00
H2       0.40069    0.21077    0.49103   1.00
C4       0.63482    0.80716    0.51362   1.00
C4       0.69138    0.83740    0.49997   1.00
C3       0.63040    0.76297    0.52967   1.00
C3       0.75059    0.83140    0.50269   1.00
C3       0.58009    0.82098    0.51134   1.00
C3       0.68958    0.87537    0.48288   1.00
C2       0.52210    0.74863    0.54184   1.00
C2       0.80435    0.89570    0.47183   1.00
C3       0.57598    0.73481    0.54343   1.00
C3       0.80526    0.85932    0.48902   1.00
C3       0.52578    0.79160    0.52575   1.00
C3       0.74615    0.90268    0.46926   1.00
H1       0.66622    0.74904    0.53184   1.00
H1       0.75650    0.80709    0.51481   1.00
C5       0.58029    0.86278    0.49497   1.00
C5       0.63261    0.88558    0.47982   1.00
H1       0.57594    0.70354    0.55472   1.00
H1       0.84637    0.85297    0.49179   1.00
H1       0.48618    0.80062    0.52471   1.00
H1       0.74654    0.92958    0.45686   1.00
C6       0.52584    0.88288    0.49401   1.00
C6       0.62806    0.91954    0.46056   1.00
H2       0.51845    0.89759    0.50912   1.00
H2       0.64199    0.89884    0.44769   1.00
H2       0.54304    0.92995    0.48559   1.00
H2       0.57563    0.90474    0.45692   1.00
C6       0.45706    0.82609    0.48465   1.00
C6       0.67174    0.99932    0.46133   1.00
H2       0.44440    0.77652    0.49099   1.00
H2       0.72181    1.01462    0.46780   1.00
C6       0.39294    0.83465    0.48699   1.00
C6       0.68317    1.03904    0.44094   1.00
H2       0.46559    0.82259    0.46849   1.00
H2       0.64747    1.01724    0.47209   1.00
C6       0.37060    0.82912    0.50948   1.00
C6       0.72713    1.02475    0.42585   1.00
C6       0.40572    0.90345    0.47816   1.00
C6       0.61467    1.02128    0.43069   1.00
C6       0.33284    0.77638    0.47510   1.00
C6       0.72213    1.11667    0.44559   1.00
H2       0.36225    0.78154    0.51627   1.00
H2       0.77543    1.03574    0.43275   1.00
H2       0.40888    0.87112    0.51851   1.00
H2       0.70088    0.97174    0.42095   1.00
H2       0.32322    0.83040    0.51082   1.00
H2       0.73877    1.05622    0.41228   1.00
H2       0.35929    0.90680    0.47854   1.00
H2       0.62307    1.05278    0.41727   1.00
H2       0.44443    0.94623    0.48688   1.00
H2       0.58726    0.96815    0.42584   1.00
H2       0.42290    0.90926    0.46245   1.00
H2       0.58214    1.02954    0.44114   1.00
H2       0.32123    0.72653    0.48090   1.00
H2       0.77134    1.13207    0.45266   1.00
H2       0.28663    0.77990    0.47640   1.00
H2       0.73175    1.14667    0.43176   1.00
H2       0.34499    0.77838    0.45901   1.00
H2       0.69300    1.13023    0.45586   1.00
C4       0.19294    0.82783    0.51364   1.00
C4       0.16268    0.85416    0.50001   1.00
C3       0.23821    0.86799    0.52944   1.00
C3       0.16981    0.91992    0.50252   1.00
C3       0.17802    0.75884    0.51161   1.00
C3       0.12354    0.81385    0.48315   1.00
C2       0.25154    0.77365    0.54185   1.00
C2       0.10432    0.90882    0.47188   1.00
C3       0.26641    0.84175    0.54320   1.00
C3       0.14186    0.94666    0.48885   1.00
C3       0.20749    0.73396    0.52600   1.00
C3       0.09624    0.84311    0.46952   1.00
H1       0.25292    0.91801    0.53143   1.00
H1       0.19500    0.95058    0.51448   1.00
C5       0.13509    0.71679    0.49548   1.00
C5       0.11218    0.74616    0.48031   1.00
H1       0.29848    0.87326    0.55430   1.00
H1       0.14905    0.99453    0.49147   1.00
H1       0.19772    0.68505    0.52513   1.00
H1       0.06851    0.81622    0.45728   1.00
C6       0.11392    0.64193    0.49480   1.00
C6       0.07692    0.70694    0.46127   1.00
H2       0.09973    0.62064    0.51002   1.00
H2       0.09737    0.74089    0.44824   1.00
H2       0.06633    0.61217    0.48660   1.00
H2       0.09083    0.66861    0.45770   1.00
C6       0.16958    0.62847    0.48531   1.00
C6       -0.00273   0.67189    0.46238   1.00
H2       0.21965    0.66519    0.49139   1.00
H2       -0.01703   0.70750    0.46880   1.00
C6       0.16006    0.55548    0.48789   1.00
C6       -0.04361   0.64300    0.44219   1.00
H2       0.17243    0.63974    0.46911   1.00
H2       -0.02065   0.63018    0.47332   1.00
C6       0.16639    0.53955    0.51041   1.00
C6       -0.02926   0.70074    0.42689   1.00
C6       0.09048    0.49968    0.47942   1.00
C6       -0.02731   0.59108    0.43204   1.00
C6       0.21722    0.55212    0.47584   1.00
C6       -0.12098   0.60551    0.44718   1.00
H2       0.21455    0.57866    0.51694   1.00
H2       -0.03922   0.73887    0.43371   1.00
H2       0.12513    0.53693    0.51957   1.00
H2       0.02350    0.72662    0.42175   1.00
H2       0.16442    0.49060    0.51189   1.00
H2       -0.06147   0.68060    0.41347   1.00
H2       0.08638    0.44959    0.47996   1.00
H2       -0.05959   0.56765    0.41878   1.00
H2       0.04842    0.49670    0.48827   1.00
H2       0.02555    0.61590    0.42696   1.00
H2       0.08411    0.51047    0.46369   1.00
H2       -0.03563   0.55062    0.44263   1.00
H2       0.26756    0.59013    0.48138   1.00
H2       -0.13537   0.64018    0.45420   1.00
H2       0.21301    0.50212    0.47729   1.00
H2       -0.15176   0.58477    0.43350   1.00
H2       0.21460    0.56158    0.45972   1.00
H2       -0.13460   0.56321    0.45762   1.00
C4       0.37397    0.16859    0.98957   1.00
C4       0.31758    0.13768    1.00326   1.00
C3       0.42650    0.23800    0.99140   1.00
C3       0.31345    0.17170    1.02093   1.00
C3       0.37879    0.12939    0.97332   1.00
C3       0.26280    0.07015    0.99940   1.00
C2       0.48976    0.23023    0.96249   1.00
C2       0.20200    0.07651    1.03044   1.00
C3       0.48285    0.26790    0.97835   1.00
C3       0.25733    0.14229    1.03407   1.00
C3       0.43719    0.16164    0.96043   1.00
C3       0.20641    0.04218    1.01309   1.00
H1       0.42544    0.26964    1.00215   1.00
H1       0.35138    0.21885    1.02502   1.00
C5       0.32602    0.06010    0.97019   1.00
C5       0.26541    0.03226    0.98233   1.00
H1       0.51914    0.31812    0.98052   1.00
H1       0.25732    0.16959    1.04650   1.00
H1       0.44266    0.13529    0.94879   1.00
H1       0.16628    -0.00551   1.01078   1.00
C6       0.33530    0.01710    0.95432   1.00
C6       0.20399    -0.03614   0.97721   1.00
H2       0.38704    0.02566    0.95531   1.00
H2       0.15803    -0.03235   0.97855   1.00
H2       0.30514    -0.03699   0.95775   1.00
H2       0.20303    -0.04855   0.96125   1.00
C6       0.31790    0.02975    0.93230   1.00
C6       0.19922    -0.09616   0.99030   1.00
H2       0.34013    0.08451    0.92974   1.00
H2       0.21005    -0.08030   1.00617   1.00
C6       0.33982    -0.00002   0.91425   1.00
C6       0.13074    -0.16588   0.98960   1.00
H2       0.26278    0.00878    0.93146   1.00
H2       0.24043    -0.10492   0.98554   1.00
C6       0.41853    0.03527    0.91235   1.00
C6       0.07114    -0.16034   0.99920   1.00
C6       0.30987    -0.07799   0.91640   1.00
C6       0.11146    -0.19310   0.96763   1.00
C6       0.31218    0.01318    0.89423   1.00
C6       0.13971    -0.21899   1.00211   1.00
H2       0.44135    0.09053    0.91114   1.00
H2       0.08362    -0.14019   1.01462   1.00
H2       0.44106    0.02454    0.92542   1.00
H2       0.05924    -0.12691   0.99040   1.00
H2       0.43328    0.01756    0.89892   1.00
H2       0.02481    -0.21011   0.99991   1.00
H2       0.32136    -0.09900   0.90306   1.00
H2       0.06636    -0.24390   0.96744   1.00
H2       0.33132    -0.08984   0.92954   1.00
H2       0.09999    -0.15993   0.95851   1.00
H2       0.25461    -0.10394   0.91819   1.00
H2       0.15316    -0.19614   0.96037   1.00
H2       0.33240    0.06769    0.89186   1.00
H2       0.15270    -0.20253   1.01785   1.00
H2       0.32660    -0.00635   0.88113   1.00
H2       0.09296    -0.26854   1.00218   1.00
H2       0.25663    -0.01167   0.89447   1.00
H2       0.18025    -0.22621   0.99582   1.00
C4       0.80798    0.63407    0.98666   1.00
C4       0.83799    0.69025    1.00045   1.00
C3       0.77522    0.63578    0.96840   1.00
C3       0.84370    0.75445    0.99593   1.00
C3       0.81024    0.57341    0.99108   1.00
C3       0.86365    0.68291    1.01953   1.00
C2       0.75020    0.52177    0.95828   1.00
C2       0.89565    0.80285    1.02872   1.00
C3       0.74748    0.58155    0.95457   1.00
C3       0.87131    0.80899    1.00965   1.00
C3       0.78172    0.51947    0.97654   1.00
C3       0.89105    0.73957    1.03312   1.00
H1       0.76968    0.67623    0.96455   1.00
H1       0.82863    0.76420    0.98243   1.00
C5       0.83999    0.56757    1.00963   1.00
C5       0.86193    0.62046    1.02457   1.00
H1       0.72478    0.58606    0.94163   1.00
H1       0.87373    0.85388    1.00552   1.00
H1       0.78277    0.47571    0.97908   1.00
H1       0.90936    0.73616    1.04689   1.00
C6       0.84855    0.50617    1.01310   1.00
C6       0.88250    0.61087    1.04563   1.00
H2       0.86769    0.49540    0.99925   1.00
H2       0.86014    0.62951    1.05677   1.00
H2       0.88963    0.51741    1.02370   1.00
H2       0.85882    0.55727    1.04968   1.00
C6       0.78181    0.44193    1.02077   1.00
C6       0.96164    0.64493    1.04840   1.00
H2       0.73826    0.43602    1.01197   1.00
H2       0.98672    0.69584    1.04165   1.00
C6       0.77997    0.37189    1.02056   1.00
C6       0.98950    0.65157    1.07051   1.00
H2       0.77242    0.45217    1.03628   1.00
H2       0.97880    0.61575    1.03944   1.00
C6       0.78198    0.34809    0.99864   1.00
C6       0.97681    0.70139    1.08345   1.00
C6       0.83961    0.37496    1.03294   1.00
C6       0.95737    0.58147    1.08130   1.00
C6       0.71214    0.31726    1.03041   1.00
C6       1.06777    0.68078    1.06945   1.00
H2       0.74114    0.34645    0.98941   1.00
H2       0.99793    0.75108    1.07607   1.00
H2       0.83026    0.38206    0.99121   1.00
H2       0.92259    0.68189    1.08587   1.00
H2       0.77592    0.29715    0.99858   1.00
H2       1.00052    0.70933    1.09836   1.00
H2       0.83511    0.32475    1.03391   1.00
H2       0.98065    0.58593    1.09614   1.00
H2       0.88851    0.40929    1.02585   1.00
H2       0.90289    0.56074    1.08369   1.00
H2       0.84022    0.39297    1.04832   1.00
H2       0.96434    0.54500    1.07229   1.00
H2       0.66826    0.31253    1.02210   1.00
H2       1.09308    0.73074    1.06213   1.00
H2       0.70826    0.26722    1.03050   1.00
H2       1.08972    0.68680    1.08457   1.00
H2       0.70832    0.33050    1.04609   1.00
H2       1.07998    0.64711    1.06083   1.00
C4       0.82785    0.19296    0.98635   1.00
C4       0.85419    0.16269    0.99999   1.00
C3       0.86806    0.23837    0.97059   1.00
C3       0.92002    0.16997    0.99751   1.00
C3       0.75881    0.17789    0.98836   1.00
C3       0.81381    0.12339    1.01681   1.00
C2       0.77368    0.25157    0.95815   1.00
C2       0.90884    0.10432    1.02811   1.00
C3       0.84183    0.26657    0.95684   1.00
C3       0.94676    0.14202    1.01117   1.00
C3       0.73394    0.20737    0.97397   1.00
C3       0.84307    0.09609    1.03044   1.00
H1       0.91812    0.25319    0.96863   1.00
H1       0.95074    0.19529    0.98556   1.00
C5       0.71670    0.13480    1.00445   1.00
C5       0.74604    0.11188    1.01962   1.00
H1       0.87338    0.29875    0.94575   1.00
H1       0.99468    0.14933    1.00858   1.00
H1       0.68499    0.19749    0.97481   1.00
H1       0.81612    0.06825    1.04266   1.00
C6       0.64180    0.11349    1.00509   1.00
C6       0.70673    0.07645    1.03863   1.00
H2       0.62061    0.09937    0.98986   1.00
H2       0.74058    0.09685    1.05169   1.00
H2       0.61205    0.06583    1.01326   1.00
H2       0.66831    0.09023    1.04220   1.00
C6       0.62814    0.16899    1.01460   1.00
C6       0.67182    -0.00319   1.03748   1.00
H2       0.66483    0.21913    1.00855   1.00
H2       0.70755    -0.01736   1.03107   1.00
C6       0.55510    0.15934    1.01199   1.00
C6       0.64286    -0.04422   1.05764   1.00
H2       0.63931    0.17176    1.03081   1.00
H2       0.63018    -0.02110   1.02652   1.00
C6       0.53930    0.16578    0.98947   1.00
C6       0.70053    -0.02987   1.07296   1.00
C6       0.49934    0.08966    1.02041   1.00
C6       0.59078    -0.02812   1.06778   1.00
C6       0.55153    0.21635    1.02406   1.00
C6       0.60553    -0.12156   1.05261   1.00
H2       0.57838    0.21402    0.98297   1.00
H2       0.73876    -0.03969   1.06615   1.00
H2       0.53682    0.12463    0.98029   1.00
H2       0.72628    0.02286    1.07814   1.00
H2       0.49031    0.16372    0.98796   1.00
H2       0.68034    -0.06217   1.08637   1.00
H2       0.44921    0.08546    1.01984   1.00
H2       0.56730    -0.06051   1.08101   1.00
H2       0.49651    0.04770    1.01154   1.00
H2       0.61548    0.02470    1.07289   1.00
H2       0.51004    0.08321    1.03613   1.00
H2       0.55037    -0.03645   1.05717   1.00
H2       0.58951    0.26676    1.01856   1.00
H2       0.64031    -0.13581   1.04559   1.00
H2       0.50150    0.21204    1.02259   1.00
H2       0.58474    -0.15244   1.06626   1.00
H2       0.56091    0.21364    1.04018   1.00
H2       0.56328    -0.13518   1.04215   1.00
C4       0.49362    0.96784    0.81983   1.00
C4       0.52360    1.02599    0.83288   1.00
C3       0.42394    0.91581    0.82147   1.00
C3       0.48448    1.03982    0.84703   1.00
C3       0.53412    0.96055    0.80447   1.00
C3       0.59537    1.07271    0.83194   1.00
C2       0.43205    0.85191    0.79279   1.00
C2       0.58467    1.14175    0.85999   1.00
C3       0.39390    0.85975    0.80832   1.00
C3       0.51401    1.09570    0.86025   1.00
C3       0.50148    0.90289    0.79132   1.00
C3       0.62351    1.12879    0.84575   1.00
H1       0.39258    0.91635    0.83242   1.00
H1       0.43296    1.01018    0.84812   1.00
C5       0.60526    1.00979    0.80262   1.00
C5       0.63697    1.06306    0.81742   1.00
H1       0.34332    0.82412    0.81025   1.00
H1       0.48303    1.10269    0.87016   1.00
H1       0.52848    0.89618    0.78013   1.00
H1       0.67439    1.16285    0.84563   1.00
C6       0.64571    1.00536    0.78499   1.00
C6       0.71370    1.10864    0.81804   1.00
H2       0.61563    0.99450    0.77117   1.00
H2       0.73079    1.11494    0.83375   1.00
H2       0.68971    1.05470    0.78147   1.00
H2       0.73965    1.08387    0.81141   1.00
C6       0.67009    0.95241    0.78847   1.00
C6       0.73916    1.17910    0.80733   1.00
H2       0.62831    0.90552    0.79485   1.00
H2       0.70664    1.19990    0.81173   1.00
C6       0.69885    0.93241    0.76973   1.00
C6       0.81505    1.23585    0.81088   1.00
H2       0.70935    0.97278    0.80023   1.00
H2       0.73117    1.16970    0.79103   1.00
C6       0.64286    0.89303    0.75357   1.00
C6       0.82809    1.26014    0.83327   1.00
C6       0.75921    0.99582    0.75975   1.00
C6       0.86534    1.21130    0.80479   1.00
C6       0.72534    0.88463    0.77704   1.00
C6       0.83053    1.29836    0.79747   1.00
H2       0.59900    0.84853    0.76022   1.00
H2       0.79261    1.27678    0.83814   1.00
H2       0.62485    0.92509    0.74686   1.00
H2       0.82222    1.21969    0.84345   1.00
H2       0.66218    0.87522    0.74125   1.00
H2       0.87975    1.30288    0.83529   1.00
H2       0.78199    0.98095    0.74763   1.00
H2       0.91809    1.25269    0.80595   1.00
H2       0.74233    1.02895    0.75310   1.00
H2       0.85978    1.17028    0.81470   1.00
H2       0.79875    1.02525    0.77090   1.00
H2       0.85628    1.19257    0.78921   1.00
H2       0.68442    0.83859    0.78404   1.00
H2       0.79679    1.31819    0.80131   1.00
H2       0.74558    0.86886    0.76443   1.00
H2       0.88296    1.33966    0.79953   1.00
H2       0.76604    0.91007    0.78820   1.00
H2       0.82357    1.28477    0.78142   1.00
C4       0.03165    0.52649    0.81964   1.00
C4       -0.02641   0.49874    0.83273   1.00
C3       0.07811    0.50135    0.81926   1.00
C3       -0.04606   0.43948    0.84475   1.00
C3       0.04461    0.58158    0.80634   1.00
C3       -0.06703   0.53074    0.83400   1.00
C2       0.14722    0.58034    0.79247   1.00
C2       -0.14186   0.44451    0.85994   1.00
C3       0.13396    0.52713    0.80604   1.00
C3       -0.10179   0.41330    0.85803   1.00
C3       0.10184    0.60614    0.79303   1.00
C3       -0.12315   0.50269    0.84779   1.00
H1       0.07349    0.46381    0.82872   1.00
H1       -0.02102   0.41272    0.84417   1.00
C5       0.00128    0.61093    0.80664   1.00
C5       -0.05148   0.58884    0.82163   1.00
H1       0.16541    0.50661    0.80645   1.00
H1       -0.11314   0.37056    0.86635   1.00
H1       0.11245    0.64494    0.78326   1.00
H1       -0.15295   0.52430    0.84923   1.00
C6       0.01127    0.66418    0.79102   1.00
C6       -0.09033   0.62650    0.82470   1.00
H2       0.01946    0.64813    0.77621   1.00
H2       -0.09533   0.63246    0.84090   1.00
H2       -0.03538   0.66568    0.78847   1.00
H2       -0.06092   0.67926    0.81976   1.00
C6       0.06996    0.73760    0.79662   1.00
C6       -0.16130   0.59173    0.81376   1.00
H2       0.11422    0.73504    0.80207   1.00
H2       -0.18727   0.53666    0.81627   1.00
C6       0.09499    0.79353    0.77971   1.00
C6       -0.21212   0.61699    0.81947   1.00
H2       0.05289    0.75519    0.80960   1.00
H2       -0.15194   0.59840    0.79744   1.00
C6       0.13021    0.77780    0.76202   1.00
C6       -0.23676   0.59940    0.84176   1.00
C6       0.03564    0.80156    0.77118   1.00
C6       -0.18003   0.69480    0.81615   1.00
C6       0.14837    0.86287    0.78909   1.00
C6       -0.27585   0.58021    0.80559   1.00
H2       0.17169    0.77074    0.76759   1.00
H2       -0.25870   0.54492    0.84469   1.00
H2       0.09441    0.73173    0.75392   1.00
H2       -0.19507   0.62695    0.85242   1.00
H2       0.15164    0.81934    0.75101   1.00
H2       -0.27567   0.61292    0.84517   1.00
H2       0.05437    0.84390    0.76047   1.00
H2       -0.21737   0.71104    0.81877   1.00
H2       -0.00117   0.75564    0.76317   1.00
H2       -0.13770   0.72331    0.82656   1.00
H2       0.00906    0.81125    0.78339   1.00
H2       -0.16096   0.70875    0.80068   1.00
H2       0.19184    0.86018    0.79517   1.00
H2       -0.30091   0.52498    0.80751   1.00
H2       0.16777    0.90358    0.77780   1.00
H2       -0.31315   0.59586    0.80910   1.00
H2       0.12615    0.87749    0.80143   1.00
H2       -0.26193   0.59176    0.78964   1.00
C4       0.47352    0.50518    0.81964   1.00
C4       0.50129    0.47487    0.83273   1.00
C3       0.49853    0.57675    0.81930   1.00
C3       0.56043    0.51448    0.84480   1.00
C3       0.41857    0.46306    0.80630   1.00
C3       0.46941    0.40225    0.83396   1.00
C2       0.41967    0.56689    0.79248   1.00
C2       0.55553    0.41366    0.85994   1.00
C3       0.47274    0.60683    0.80608   1.00
C3       0.58662    0.48494    0.85808   1.00
C3       0.39400    0.49574    0.79299   1.00
C3       0.49746    0.37418    0.84775   1.00
H1       0.53596    0.60965    0.82880   1.00
H1       0.58710    0.56629    0.84425   1.00
C5       0.38936    0.39040    0.80656   1.00
C5       0.41143    0.35971    0.82154   1.00
H1       0.49316    0.65878    0.80653   1.00
H1       0.62927    0.51633    0.86643   1.00
H1       0.35530    0.46756    0.78319   1.00
H1       0.47594    0.32277    0.84915   1.00
C6       0.33627    0.34718    0.79089   1.00
C6       0.37389    0.28317    0.82456   1.00
H2       0.35238    0.37154    0.77610   1.00
H2       0.36783    0.27209    0.84076   1.00
H2       0.33490    0.29910    0.78832   1.00
H2       0.32116    0.25976    0.81959   1.00
C6       0.26275    0.33225    0.79646   1.00
C6       0.40887    0.24718    0.81362   1.00
H2       0.26516    0.37898    0.80192   1.00
H2       0.46392    0.27636    0.81617   1.00
C6       0.20695    0.30138    0.77950   1.00
C6       0.38372    0.17109    0.81929   1.00
H2       0.24512    0.29749    0.80941   1.00
H2       0.40231    0.24998    0.79730   1.00
C6       0.22271    0.35243    0.76185   1.00
C6       0.40118    0.16393    0.84158   1.00
C6       0.19914    0.23412    0.77095   1.00
C6       0.30596    0.12527    0.81591   1.00
C6       0.13750    0.28521    0.78885   1.00
C6       0.42072    0.14437    0.80541   1.00
H2       0.22962    0.40090    0.76744   1.00
H2       0.45563    0.19654    0.84455   1.00
H2       0.26888    0.36286    0.75377   1.00
H2       0.37349    0.17791    0.85224   1.00
H2       0.18125    0.33232    0.75081   1.00
H2       0.38774    0.11150    0.84496   1.00
H2       0.15689    0.21051    0.76020   1.00
H2       0.28980    0.07169    0.81851   1.00
H2       0.24516    0.24339    0.76296   1.00
H2       0.27729    0.13892    0.82632   1.00
H2       0.18943    0.19778    0.78313   1.00
H2       0.29209    0.13046    0.80044   1.00
H2       0.14003    0.33126    0.79495   1.00
H2       0.47592    0.17461    0.80737   1.00
H2       0.09687    0.26390    0.77754   1.00
H2       0.40514    0.09142    0.80889   1.00
H2       0.12286    0.24828    0.80117   1.00
H2       0.40927    0.14682    0.78946   1.00
C4       0.29199    0.15875    0.34348   1.00
C4       0.34782    0.18489    0.32957   1.00
C3       0.25138    0.18996    0.34632   1.00
C3       0.36245    0.23956    0.31602   1.00
C3       0.27548    0.09923    0.35516   1.00
C3       0.39115    0.15579    0.32895   1.00
C2       0.17702    0.10402    0.37089   1.00
C2       0.46268    0.24001    0.30211   1.00
C3       0.19542    0.16334    0.35952   1.00
C3       0.41828    0.26659    0.30277   1.00
C3       0.21786    0.07352    0.36835   1.00
C3       0.44770    0.18505    0.31531   1.00
H1       0.26135    0.23360    0.33906   1.00
H1       0.33268    0.26134    0.31512   1.00
C5       0.31625    0.06723    0.35358   1.00
C5       0.37731    0.09881    0.34162   1.00
H1       0.16800    0.18809    0.36083   1.00
H1       0.42622    0.30621    0.29343   1.00
H1       0.20423    0.03104    0.37679   1.00
H1       0.47992    0.16606    0.31454   1.00
C6       0.29395    0.00028    0.36436   1.00
C6       0.42760    0.07326    0.34238   1.00
H2       0.23928    -0.03300   0.36222   1.00
H2       0.47916    0.11680    0.34324   1.00
H2       0.31425    -0.02886   0.35707   1.00
H2       0.42400    0.04719    0.35656   1.00
C6       0.31392    0.00927    0.38738   1.00
C6       0.41953    0.02493    0.32426   1.00
H2       0.30258    0.04649    0.39420   1.00
H2       0.41313    0.04635    0.31013   1.00
C6       0.28073    -0.05610   0.40102   1.00
C6       0.47772    0.00769    0.32093   1.00
H2       0.36928    0.03237    0.38832   1.00
H2       0.37163    -0.02285   0.32641   1.00
C6       0.20265    -0.08609   0.40316   1.00
C6       0.54554    0.07158    0.31456   1.00
C6       0.29484    -0.11181   0.39267   1.00
C6       0.49003    -0.02394   0.34018   1.00
C6       0.31228    -0.03626   0.42257   1.00
C6       0.45619    -0.04528   0.30351   1.00
H2       0.19093    -0.04766   0.40872   1.00
H2       0.53831    0.09577    0.30119   1.00
H2       0.17661    -0.10501   0.38872   1.00
H2       0.56588    0.10936    0.32665   1.00
H2       0.18075    -0.12872   0.41380   1.00
H2       0.58440    0.05819    0.31091   1.00
H2       0.27574    -0.15513   0.40303   1.00
H2       0.52718    -0.04024   0.33725   1.00
H2       0.26972    -0.13097   0.37809   1.00
H2       0.50979    0.01293    0.35254   1.00
H2       0.34943    -0.09160   0.39061   1.00
H2       0.44273    -0.06822   0.34524   1.00
H2       0.30311    0.00255    0.42926   1.00
H2       0.44753    -0.02515   0.28947   1.00
H2       0.29034    -0.08025   0.43272   1.00
H2       0.49549    -0.05864   0.30051   1.00
H2       0.36729    -0.01598   0.42212   1.00
H2       0.40924    -0.09218   0.30728   1.00
C4       0.87261    0.70686    0.34392   1.00
C4       0.84508    0.65204    0.32965   1.00
C3       0.91801    0.71206    0.35969   1.00
C3       0.86647    0.60265    0.32881   1.00
C3       0.85454    0.75889    0.34263   1.00
C3       0.79423    0.64562    0.31554   1.00
C2       0.93096    0.81948    0.37219   1.00
C2       0.78704    0.53923    0.30145   1.00
C3       0.94662    0.76676    0.37335   1.00
C3       0.83818    0.54773    0.31522   1.00
C3       0.88510    0.81394    0.35676   1.00
C3       0.76644    0.58874    0.30202   1.00
H1       0.93145    0.67593    0.36197   1.00
H1       0.90391    0.60511    0.33790   1.00
C5       0.80687    0.75494    0.32761   1.00
C5       0.77271    0.69537    0.31508   1.00
H1       0.97923    0.76767    0.38433   1.00
H1       0.85562    0.51370    0.31543   1.00
H1       0.87387    0.85214    0.35623   1.00
H1       0.72986    0.58218    0.29186   1.00
C6       0.79381    0.81388    0.32503   1.00
C6       0.71383    0.68403    0.30159   1.00
H2       0.84230    0.86159    0.32553   1.00
H2       0.67332    0.63105    0.30287   1.00
H2       0.77608    0.81540    0.30982   1.00
H2       0.68862    0.71093    0.30720   1.00
C6       0.74174    0.81322    0.34082   1.00
C6       0.73531    0.70494    0.27895   1.00
H2       0.75352    0.80177    0.35590   1.00
H2       0.76913    0.68621    0.27407   1.00
C6       0.73576    0.87898    0.34257   1.00
C6       0.67704    0.68169    0.26284   1.00
H2       0.69145    0.77037    0.33710   1.00
H2       0.76640    0.76048    0.27839   1.00
C6       0.80221    0.94019    0.35098   1.00
C6       0.63696    0.60304    0.26033   1.00
C6       0.71821    0.89890    0.32189   1.00
C6       0.62668    0.70672    0.26834   1.00
C6       0.67739    0.86467    0.35764   1.00
C6       0.70966    0.71305    0.24201   1.00
H2       0.81662    0.92738    0.36543   1.00
H2       0.67125    0.58362    0.25676   1.00
H2       0.84462    0.95575    0.34050   1.00
H2       0.60921    0.57777    0.27409   1.00
H2       0.79594    0.98438    0.35347   1.00
H2       0.59966    0.58768    0.24810   1.00
H2       0.70935    0.94182    0.32355   1.00
H2       0.58917    0.69449    0.25632   1.00
H2       0.75982    0.91402    0.31110   1.00
H2       0.59884    0.68249    0.28221   1.00
H2       0.67237    0.85619    0.31543   1.00
H2       0.65380    0.76182    0.27062   1.00
H2       0.68764    0.85103    0.37259   1.00
H2       0.74523    0.69636    0.23731   1.00
H2       0.67151    0.90937    0.35948   1.00
H2       0.67093    0.69787    0.23020   1.00
H2       0.62875    0.82276    0.35233   1.00
H2       0.73759    0.76866    0.24270   1.00
C4       0.83466    0.12760    0.34385   1.00
C4       0.80748    0.15527    0.32959   1.00
C3       0.79361    0.07961    0.35899   1.00
C3       0.73632    0.13165    0.32807   1.00
C3       0.90551    0.14821    0.34321   1.00
C3       0.85241    0.20856    0.31618   1.00
C2       0.88886    0.06907    0.37208   1.00
C2       0.75277    0.21347    0.30142   1.00
C3       0.81968    0.05091    0.37262   1.00
C3       0.70971    0.16000    0.31450   1.00
C3       0.92997    0.11749    0.35729   1.00
C3       0.82330    0.23632    0.30266   1.00
H1       0.74337    0.06421    0.36081   1.00
H1       0.70109    0.09249    0.33663   1.00
C5       0.94996    0.19848    0.32887   1.00
C5       0.92422    0.23249    0.31641   1.00
H1       0.78736    0.01636    0.38312   1.00
H1       0.65794    0.14088    0.31421   1.00
H1       0.97994    0.13048    0.35721   1.00
H1       0.85365    0.27458    0.29299   1.00
C6       1.02310    0.21441    0.32691   1.00
C6       0.97193    0.29369    0.30370   1.00
H2       1.02419    0.16684    0.32706   1.00
H2       0.95744    0.33270    0.30517   1.00
H2       1.04384    0.23442    0.31198   1.00
H2       1.02332    0.31972    0.30986   1.00
C6       1.07146    0.26543    0.34344   1.00
C6       0.97495    0.27546    0.28092   1.00
H2       1.04645    0.25111    0.35825   1.00
H2       0.92336    0.24089    0.27542   1.00
C6       1.14411    0.27389    0.34576   1.00
C6       1.01024    0.33589    0.26550   1.00
H2       1.07749    0.31543    0.34014   1.00
H2       1.00118    0.24605    0.28032   1.00
C6       1.14041    0.20757    0.35365   1.00
C6       0.96964    0.37394    0.26299   1.00
C6       1.18409    0.29513    0.32550   1.00
C6       1.08437    0.38748    0.27191   1.00
C6       1.18483    0.33089    0.36156   1.00
C6       1.01280    0.30651    0.24445   1.00
H2       1.11151    0.19059    0.36779   1.00
H2       0.91673    0.33870    0.25879   1.00
H2       1.11604    0.16630    0.34268   1.00
H2       0.96938    0.39949    0.27696   1.00
H2       1.19127    0.21538    0.35656   1.00
H2       0.99198    0.41285    0.25120   1.00
H2       1.23628    0.30563    0.32761   1.00
H2       1.11007    0.42670    0.26035   1.00
H2       1.16008    0.25470    0.31423   1.00
H2       1.08524    0.41315    0.28599   1.00
H2       1.18621    0.34093    0.31940   1.00
H2       1.11369    0.36174    0.27420   1.00
H2       1.15908    0.31805    0.37625   1.00
H2       0.96155    0.27022    0.23911   1.00
H2       1.23590    0.33841    0.36382   1.00
H2       1.03666    0.34683    0.23310   1.00
H2       1.19038    0.37945    0.35665   1.00
H2       1.04203    0.28016    0.24514   1.00
C4       0.83248    0.69781    0.84723   1.00
C4       0.80459    0.63995    0.83406   1.00
C3       0.79866    0.73540    0.85117   1.00
C3       0.73791    0.61136    0.82563   1.00
C3       0.89663    0.71970    0.85692   1.00
C3       0.84413    0.60876    0.82898   1.00
C2       0.88721    0.81279    0.87463   1.00
C2       0.74940    0.52501    0.80663   1.00
C3       0.82492    0.79093    0.86453   1.00
C3       0.71117    0.55587    0.81225   1.00
C3       0.92143    0.77627    0.87050   1.00
C3       0.81518    0.55256    0.81522   1.00
H1       0.75402    0.72426    0.84434   1.00
H1       0.70600    0.62936    0.82905   1.00
C5       0.93442    0.68566    0.85288   1.00
C5       0.91047    0.63347    0.83767   1.00
H1       0.79793    0.81574    0.86679   1.00
H1       0.66284    0.53781    0.80663   1.00
H1       0.96662    0.79305    0.87779   1.00
H1       0.84191    0.52934    0.81114   1.00
C6       0.99854    0.70468    0.86486   1.00
C6       0.95458    0.60475    0.83051   1.00
H2       0.98942    0.71007    0.88081   1.00
H2       0.95170    0.60044    0.81403   1.00
H2       1.00927    0.66298    0.86542   1.00
H2       1.00846    0.64066    0.83283   1.00
C6       1.06296    0.77002    0.85658   1.00
C6       0.93618    0.53528    0.84084   1.00
H2       1.04973    0.80924    0.85317   1.00
H2       0.88080    0.50222    0.84119   1.00
C6       1.12828    0.80315    0.87024   1.00
C6       0.96754    0.49350    0.83150   1.00
H2       1.07629    0.75699    0.84198   1.00
H2       0.95174    0.54573    0.85673   1.00
C6       1.11687    0.83312    0.89004   1.00
C6       0.93928    0.46708    0.80993   1.00
C6       1.15162    0.75142    0.87569   1.00
C6       1.04640    0.53607    0.83060   1.00
C6       1.18692    0.86280    0.85832   1.00
C6       0.94766    0.43037    0.84514   1.00
H2       1.09926    0.86904    0.88671   1.00
H2       0.88361    0.43772    0.80999   1.00
H2       1.07910    0.79328    0.89977   1.00
H2       0.95498    0.50890    0.79921   1.00
H2       1.16396    0.86020    0.89877   1.00
H2       0.95775    0.43412    0.80412   1.00
H2       1.19981    0.77619    0.88397   1.00
H2       1.06797    0.50504    0.82543   1.00
H2       1.11412    0.71069    0.88528   1.00
H2       1.06318    0.57865    0.82009   1.00
H2       1.15864    0.72848    0.86202   1.00
H2       1.06754    0.55648    0.84553   1.00
H2       1.17330    0.90124    0.85428   1.00
H2       0.89232    0.39811    0.84611   1.00
H2       1.23365    0.88792    0.86731   1.00
H2       0.96805    0.39923    0.83914   1.00
H2       1.19834    0.84464    0.84435   1.00
H2       0.96739    0.44574    0.86050   1.00
C4       0.29369    0.12691    0.84413   1.00
C4       0.35056    0.15269    0.83061   1.00
C3       0.23329    0.12893    0.83946   1.00
C3       0.34831    0.17564    0.81065   1.00
C3       0.29647    0.09791    0.86312   1.00
C3       0.41243    0.15591    0.83703   1.00
C2       0.17734    0.07177    0.87101   1.00
C2       0.46662    0.20794    0.80361   1.00
C3       0.17670    0.10194    0.85241   1.00
C3       0.40460    0.20276    0.79757   1.00
C3       0.23760    0.07064    0.87584   1.00
C3       0.46871    0.18422    0.82329   1.00
H1       0.22840    0.15071    0.82655   1.00
H1       0.30547    0.17289    0.80479   1.00
C5       0.35697    0.09703    0.86904   1.00
C5       0.41685    0.13092    0.85663   1.00
H1       0.13456    0.10473    0.84813   1.00
H1       0.39978    0.21868    0.78340   1.00
H1       0.23746    0.04918    0.88940   1.00
H1       0.51370    0.18780    0.82736   1.00
C6       0.35662    0.05976    0.88815   1.00
C6       0.48468    0.14129    0.86404   1.00
H2       0.30930    0.01095    0.88880   1.00
H2       0.52452    0.19309    0.86046   1.00
H2       0.39448    0.04368    0.88752   1.00
H2       0.48710    0.14132    0.88051   1.00
C6       0.36805    0.10259    0.90793   1.00
C6       0.50194    0.08703    0.85554   1.00
H2       0.33710    0.12722    0.90731   1.00
H2       0.49011    0.07945    0.83935   1.00
C6       0.35372    0.06440    0.92872   1.00
C6       0.57654    0.10120    0.85844   1.00
H2       0.42089    0.14429    0.90791   1.00
H2       0.46711    0.03814    0.86264   1.00
C6       0.27698    0.01129    0.93138   1.00
C6       0.62855    0.16416    0.84606   1.00
C6       0.39619    0.02838    0.93113   1.00
C6       0.59779    0.11181    0.88107   1.00
C6       0.37419    0.11749    0.94607   1.00
C6       0.58024    0.03847    0.85059   1.00
H2       0.24549    0.03492    0.92943   1.00
H2       0.61435    0.15874    0.83005   1.00
H2       0.26010    -0.02999   0.92041   1.00
H2       0.63168    0.21092    0.85163   1.00
H2       0.26678    -0.01164   0.94645   1.00
H2       0.67962    0.17079    0.84706   1.00
H2       0.38955    0.00608    0.94622   1.00
H2       0.64792    0.11678    0.88308   1.00
H2       0.38050    -0.01274   0.92014   1.00
H2       0.60057    0.15808    0.88699   1.00
H2       0.45034    0.06439    0.92891   1.00
H2       0.56120    0.06881    0.89020   1.00
H2       0.34507    0.14396    0.94519   1.00
H2       0.56637    0.02914    0.83457   1.00
H2       0.36467    0.09315    0.96094   1.00
H2       0.63160    0.04613    0.85217   1.00
H2       0.42827    0.15568    0.94526   1.00
H2       0.54559    -0.00746   0.85903   1.00
C4       0.87257    0.16566    0.84391   1.00
C4       0.84699    0.19668    0.83029   1.00
C3       0.86198    0.09880    0.84073   1.00
C3       0.81536    0.16607    0.81151   1.00
C3       0.91022    0.20211    0.86147   1.00
C3       0.85291    0.26080    0.83539   1.00
C2       0.92714    0.10417    0.87090   1.00
C2       0.79222    0.25772    0.80320   1.00
C3       0.88866    0.06902    0.85373   1.00
C3       0.78847    0.19538    0.79840   1.00
C3       0.93685    0.17011    0.87427   1.00
C3       0.82453    0.28876    0.82168   1.00
H1       0.83389    0.06896    0.82896   1.00
H1       0.81128    0.12166    0.80655   1.00
C5       0.92010    0.26844    0.86593   1.00
C5       0.88678    0.29545    0.85369   1.00
H1       0.87944    0.02073    0.85056   1.00
H1       0.76604    0.17062    0.78511   1.00
H1       0.96428    0.19460    0.88683   1.00
H1       0.82732    0.33404    0.82484   1.00
C6       0.96608    0.30934    0.88332   1.00
C6       0.88627    0.35953    0.85994   1.00
H2       1.01205    0.30530    0.88298   1.00
H2       0.83526    0.35193    0.85767   1.00
H2       0.98689    0.36378    0.88116   1.00
H2       0.89261    0.36775    0.87623   1.00
C6       0.92993    0.28837    0.90451   1.00
C6       0.94176    0.42514    0.84882   1.00
H2       0.90049    0.23278    0.90563   1.00
H2       0.94237    0.41417    0.83270   1.00
C6       0.97593    0.31603    0.92385   1.00
C6       0.93637    0.49123    0.85060   1.00
H2       0.89224    0.30502    0.90505   1.00
H2       0.99158    0.43650    0.85459   1.00
C6       1.02384    0.28582    0.92598   1.00
C6       0.87180    0.48297    0.83980   1.00
C6       1.01922    0.39490    0.92376   1.00
C6       0.93603    0.51148    0.87303   1.00
C6       0.92916    0.29415    0.94285   1.00
C6       0.99943    0.55071    0.84008   1.00
H2       0.99490    0.23014    0.92576   1.00
H2       0.86995    0.46758    0.82401   1.00
H2       1.06103    0.30267    0.91373   1.00
H2       0.82534    0.44472    0.84723   1.00
H2       1.05224    0.30165    0.94020   1.00
H2       0.87094    0.53072    0.83991   1.00
H2       1.04737    0.41389    0.93794   1.00
H2       0.93719    0.56016    0.87409   1.00
H2       1.05636    0.41285    0.91146   1.00
H2       0.89017    0.47344    0.88080   1.00
H2       0.98681    0.41746    0.92184   1.00
H2       0.98026    0.51624    0.88110   1.00
H2       0.89792    0.23870    0.94375   1.00
H2       1.00170    0.53928    0.82410   1.00
H2       0.95903    0.31194    0.95679   1.00
H2       0.99776    0.59801    0.84080   1.00
H2       0.89500    0.31510    0.94243   1.00
H2       1.04668    0.55998    0.84730   1.00
C4       0.03142    0.50444    0.31955   1.00
C4       -0.02541   0.47795    0.33310   1.00
C3       0.04115    0.46242    0.30543   1.00
C3       -0.08006   0.40927    0.33203   1.00
C3       0.08098    0.57553    0.31995   1.00
C3       -0.02861   0.52109    0.34838   1.00
C2       0.14452    0.55851    0.29146   1.00
C2       -0.13870   0.42338    0.36112   1.00
C3       0.09573    0.48856    0.29173   1.00
C3       -0.13486   0.38261    0.34566   1.00
C3       0.13562    0.60019    0.30567   1.00
C3       -0.08510   0.49185    0.36203   1.00
H1       0.00931    0.41113    0.30470   1.00
H1       -0.08244   0.37624    0.32118   1.00
C5       0.07548    0.61987    0.33441   1.00
C5       0.02345    0.59144    0.34967   1.00
H1       0.09973    0.45562    0.28187   1.00
H1       -0.17253   0.33258    0.34413   1.00
H1       0.17161    0.65049    0.30539   1.00
H1       -0.08893   0.52077    0.37318   1.00
C6       0.12406    0.69601    0.33323   1.00
C6       0.02325    0.63452    0.36720   1.00
H2       0.12963    0.71211    0.31743   1.00
H2       0.01232    0.60520    0.38119   1.00
H2       0.10222    0.72461    0.33996   1.00
H2       0.07397    0.67708    0.37024   1.00
C6       0.19488    0.71879    0.34337   1.00
C6       -0.02699   0.66244    0.36402   1.00
H2       0.21271    0.68384    0.33892   1.00
H2       -0.07550   0.62181    0.35810   1.00
C6       0.25396    0.79322    0.33920   1.00
C6       -0.04286   0.69450    0.38281   1.00
H2       0.18691    0.71227    0.35975   1.00
H2       -0.00611   0.70077    0.35201   1.00
C6       0.27607    0.80362    0.31661   1.00
C6       -0.08271   0.64039    0.39941   1.00
C6       0.23370    0.84678    0.34530   1.00
C6       0.02309    0.75351    0.39216   1.00
C6       0.31676    0.80639    0.35211   1.00
C6       -0.08833   0.72402    0.37576   1.00
H2       0.28965    0.76584    0.31173   1.00
H2       -0.12904   0.59746    0.39321   1.00
H2       0.23554    0.79925    0.30673   1.00
H2       -0.05203   0.62046    0.40595   1.00
H2       0.32031    0.85407    0.31413   1.00
H2       -0.09763   0.66216    0.41179   1.00
H2       0.27678    0.89848    0.34370   1.00
H2       0.01120    0.77865    0.40431   1.00
H2       0.19266    0.84278    0.33571   1.00
H2       0.05487    0.73468    0.39862   1.00
H2       0.21655    0.83966    0.36103   1.00
H2       0.05283    0.79164    0.38068   1.00
H2       0.33363    0.77028    0.34823   1.00
H2       -0.13603   0.68417    0.36922   1.00
H2       0.35964    0.85771    0.34960   1.00
H2       -0.10120   0.74663    0.38841   1.00
H2       0.30475    0.80116    0.36827   1.00
H2       -0.06239   0.76357    0.36431   1.00
C4       0.47376    0.96820    0.31969   1.00
C4       0.50401    1.02478    0.33333   1.00
C3       0.42878    0.96328    0.30383   1.00
C3       0.49719    1.08357    0.33077   1.00
C3       0.48838    0.91395    0.32179   1.00
C3       0.54284    1.02345    0.35025   1.00
C2       0.41517    0.85544    0.29148   1.00
C2       0.56236    1.13779    0.36146   1.00
C3       0.40059    0.90885    0.29007   1.00
C3       0.52513    1.13826    0.34443   1.00
C3       0.45894    0.85962    0.30740   1.00
C3       0.57014    1.08001    0.36388   1.00
H1       0.41427    0.99872    0.30179   1.00
H1       0.47223    1.08916    0.31876   1.00
C5       0.53101    0.91465    0.33799   1.00
C5       0.55389    0.96694    0.35315   1.00
H1       0.36873    0.90843    0.27891   1.00
H1       0.51816    1.17905    0.34178   1.00
H1       0.46851    0.82035    0.30831   1.00
H1       0.59765    1.08072    0.37616   1.00
C6       0.55189    0.86076    0.33874   1.00
C6       0.58880    0.96282    0.37225   1.00
H2       0.56623    0.85357    0.32355   1.00
H2       0.56828    0.97643    0.38524   1.00
H2       0.59935    0.87841    0.34700   1.00
H2       0.57465    0.91053    0.37584   1.00
C6       0.49593    0.79173    0.34820   1.00
C6       0.66849    1.00717    0.37124   1.00
H2       0.44599    0.77856    0.34205   1.00
H2       0.68306    1.05713    0.36480   1.00
C6       0.50519    0.72808    0.34569   1.00
C6       0.70906    1.01901    0.39148   1.00
H2       0.49290    0.80017    0.36439   1.00
H2       0.68641    0.98325    0.36034   1.00
C6       0.49908    0.70580    0.32317   1.00
C6       0.69472    1.06255    0.40672   1.00
C6       0.57457    0.74159    0.35425   1.00
C6       0.69237    0.95072    0.40166   1.00
C6       0.44773    0.66766    0.35769   1.00
C6       0.78650    1.05865    0.38658   1.00
H2       0.45107    0.69693    0.31658   1.00
H2       0.70496    1.11070    0.39988   1.00
H2       0.54054    0.74434    0.31405   1.00
H2       0.64189    1.03584    0.41180   1.00
H2       0.50086    0.65871    0.32173   1.00
H2       0.72673    1.07450    0.42019   1.00
H2       0.57846    0.69547    0.35375   1.00
H2       0.72444    0.95944    0.41496   1.00
H2       0.61682    0.78057    0.34543   1.00
H2       0.63943    0.92285    0.40668   1.00
H2       0.58078    0.75875    0.36997   1.00
H2       0.70067    0.91847    0.39110   1.00
H2       0.39752    0.65553    0.35208   1.00
H2       0.80116    1.10774    0.37955   1.00
H2       0.45176    0.62177    0.35629   1.00
H2       0.81707    1.06857    0.40030   1.00
H2       0.45019    0.67977    0.37380   1.00
H2       0.80011    1.02984    0.37619   1.00
C4       0.49450    0.52627    0.31969   1.00
C4       0.52083    0.49601    0.33332   1.00
C3       0.53464    0.57151    0.30388   1.00
C3       0.58657    0.50311    0.33081   1.00
C3       0.42552    0.51137    0.32173   1.00
C3       0.48053    0.45689    0.35018   1.00
C2       0.44032    0.58487    0.29148   1.00
C2       0.57548    0.43765    0.36145   1.00
C3       0.50841    0.59971    0.29013   1.00
C3       0.61332    0.47516    0.34448   1.00
C3       0.40064    0.54084    0.30734   1.00
C3       0.50979    0.42959    0.36381   1.00
H1       0.58466    0.58621    0.30190   1.00
H1       0.61723    0.52829    0.31884   1.00
C5       0.38348    0.46846    0.33786   1.00
C5       0.41285    0.44556    0.35303   1.00
H1       0.53992    0.63177    0.27902   1.00
H1       0.66118    0.48234    0.34186   1.00
H1       0.35173    0.53108    0.30821   1.00
H1       0.48290    0.40188    0.37606   1.00
C6       0.30862    0.44731    0.33855   1.00
C6       0.37364    0.41033    0.37207   1.00
H2       0.28731    0.43311    0.32333   1.00
H2       0.40760    0.43078    0.38510   1.00
H2       0.27886    0.39974    0.34675   1.00
H2       0.33533    0.42425    0.37565   1.00
C6       0.29519    0.50300    0.34804   1.00
C6       0.33857    0.33066    0.37097   1.00
H2       0.33191    0.55306    0.34195   1.00
H2       0.37416    0.31635    0.36455   1.00
C6       0.22221    0.49349    0.34546   1.00
C6       0.30969    0.28981    0.39117   1.00
H2       0.30648    0.50586    0.36424   1.00
H2       0.29685    0.31275    0.36004   1.00
C6       0.20626    0.49981    0.32294   1.00
C6       0.36744    0.30416    0.40646   1.00
C6       0.16641    0.42393    0.35394   1.00
C6       0.25780    0.30614    0.40132   1.00
C6       0.21887    0.55068    0.35751   1.00
C6       0.27218    0.21243    0.38619   1.00
H2       0.24537    0.54796    0.31641   1.00
H2       0.40555    0.29418    0.39964   1.00
H2       0.20361    0.45854    0.31378   1.00
H2       0.39334    0.35693    0.41159   1.00
H2       0.15731    0.49785    0.32146   1.00
H2       0.34730    0.27197    0.41989   1.00
H2       0.11632    0.41985    0.35340   1.00
H2       0.23437    0.27388    0.41458   1.00
H2       0.16340    0.38186    0.34509   1.00
H2       0.28264    0.35901    0.40640   1.00
H2       0.17720    0.41757    0.36966   1.00
H2       0.21733    0.29783    0.39073   1.00
H2       0.25689    0.60101    0.35196   1.00
H2       0.30683    0.19803    0.37916   1.00
H2       0.16888    0.54648    0.35606   1.00
H2       0.25144    0.18167    0.39987   1.00
H2       0.22836    0.54807    0.37362   1.00
H2       0.22987    0.19882    0.37575   1.00
C4       0.16055    0.30131    0.15312   1.00
C4       0.19061    0.35944    0.16618   1.00
C3       0.09031    0.25048    0.15433   1.00
C3       0.15125    0.37455    0.17987   1.00
C3       0.20156    0.29278    0.13821   1.00
C3       0.26271    0.40483    0.16572   1.00
C2       0.09894    0.18545    0.12606   1.00
C2       0.25172    0.47513    0.19331   1.00
C3       0.06025    0.19447    0.14116   1.00
C3       0.18078    0.43039    0.19310   1.00
C3       0.16890    0.23521    0.12502   1.00
C3       0.29084    0.46092    0.17953   1.00
H1       0.05849    0.25190    0.16495   1.00
H1       0.09956    0.34591    0.18059   1.00
C5       0.27319    0.34074    0.13683   1.00
C5       0.30466    0.39389    0.15167   1.00
H1       0.00926    0.15974    0.14276   1.00
H1       0.14961    0.43834    0.20266   1.00
H1       0.19626    0.22766    0.11414   1.00
H1       0.34193    0.49404    0.17975   1.00
C6       0.31441    0.33512    0.11963   1.00
C6       0.38149    0.43798    0.15284   1.00
H2       0.28561    0.32490    0.10557   1.00
H2       0.39720    0.44393    0.16868   1.00
H2       0.35942    0.38390    0.11631   1.00
H2       0.40695    0.41216    0.14658   1.00
C6       0.33669    0.28079    0.12362   1.00
C6       0.40942    0.50866    0.14203   1.00
H2       0.29369    0.23443    0.12981   1.00
H2       0.37758    0.53064    0.14600   1.00
C6       0.36606    0.25971    0.10527   1.00
C6       0.48549    0.56411    0.14605   1.00
H2       0.37496    0.30039    0.13566   1.00
H2       0.40265    0.49933    0.12571   1.00
C6       0.31114    0.22130    0.08875   1.00
C6       0.49714    0.58841    0.16845   1.00
C6       0.42813    0.32230    0.09558   1.00
C6       0.53489    0.53785    0.14059   1.00
C6       0.39024    0.21058    0.11308   1.00
C6       0.50359    0.62701    0.13250   1.00
H2       0.26613    0.17742    0.09518   1.00
H2       0.46222    0.60625    0.17288   1.00
H2       0.29483    0.25427    0.08170   1.00
H2       0.48938    0.54760    0.17877   1.00
H2       0.33072    0.20270    0.07672   1.00
H2       0.54907    0.63032    0.17077   1.00
H2       0.45119    0.30659    0.08377   1.00
H2       0.58793    0.57835    0.14207   1.00
H2       0.41296    0.35632    0.08860   1.00
H2       0.52746    0.49645    0.15064   1.00
H2       0.46698    0.35107    0.10698   1.00
H2       0.52675    0.51908    0.12502   1.00
H2       0.34806    0.16505    0.11989   1.00
H2       0.47056    0.64803    0.13591   1.00
H2       0.41081    0.19402    0.10076   1.00
H2       0.55623    0.66743    0.13487   1.00
H2       0.43012    0.23527    0.12451   1.00
H2       0.49769    0.61340    0.11645   1.00
C4       0.70623    0.87314    0.15584   1.00
C4       0.65144    0.84602    0.17013   1.00
C3       0.70649    0.90998    0.13829   1.00
C3       0.59670    0.85989    0.16903   1.00
C3       0.76331    0.86345    0.15897   1.00
C3       0.65059    0.80336    0.18626   1.00
C2       0.81852    0.93090    0.12746   1.00
C2       0.53891    0.78849    0.19843   1.00
C3       0.76101    0.93832    0.12457   1.00
C3       0.54193    0.83180    0.18267   1.00
C3       0.81796    0.89345    0.14469   1.00
C3       0.59368    0.77546    0.19976   1.00
H1       0.66677    0.91703    0.13471   1.00
H1       0.59491    0.89149    0.15840   1.00
C5       0.76465    0.82438    0.17590   1.00
C5       0.70570    0.78988    0.18866   1.00
H1       0.75821    0.96457    0.11224   1.00
H1       0.50389    0.84357    0.18100   1.00
H1       0.85963    0.88807    0.14647   1.00
H1       0.59101    0.74453    0.21134   1.00
C6       0.82839    0.82068    0.18022   1.00
C6       0.70064    0.73895    0.20443   1.00
H2       0.87284    0.87135    0.17851   1.00
H2       0.64968    0.69434    0.20391   1.00
H2       0.83185    0.81006    0.19612   1.00
H2       0.73221    0.71696    0.20053   1.00
C6       0.83435    0.76662    0.16686   1.00
C6       0.71964    0.76978    0.22634   1.00
H2       0.82113    0.77053    0.15116   1.00
H2       0.69565    0.80050    0.22930   1.00
C6       0.90452    0.76872    0.16670   1.00
C6       0.70188    0.71888    0.24444   1.00
H2       0.79519    0.71607    0.17194   1.00
H2       0.77446    0.80575    0.22662   1.00
C6       0.96118    0.83481    0.15663   1.00
C6       0.62371    0.67282    0.24715   1.00
C6       0.92726    0.76260    0.18839   1.00
C6       0.73455    0.67342    0.24173   1.00
C6       0.89682    0.70738    0.15407   1.00
C6       0.73060    0.76066    0.26427   1.00
H2       0.94619    0.84121    0.14140   1.00
H2       0.59897    0.70341    0.24877   1.00
H2       0.97223    0.87985    0.16544   1.00
H2       0.60070    0.63891    0.23424   1.00
H2       1.00863    0.83366    0.15532   1.00
H2       0.61181    0.64088    0.26063   1.00
H2       0.97366    0.75920    0.18799   1.00
H2       0.72597    0.64160    0.25508   1.00
H2       0.93794    0.80696    0.19753   1.00
H2       0.71263    0.63952    0.22874   1.00
H2       0.88764    0.71720    0.19598   1.00
H2       0.78943    0.70461    0.23936   1.00
H2       0.88147    0.70965    0.13852   1.00
H2       0.70856    0.79320    0.26702   1.00
H2       0.94475    0.70689    0.15340   1.00
H2       0.71906    0.72727    0.27740   1.00
H2       0.85842    0.65906    0.16067   1.00
H2       0.78589    0.79325    0.26345   1.00
C4       0.12760    0.83466    0.15615   1.00
C4       0.15527    0.80748    0.17041   1.00
C3       0.07961    0.79361    0.14101   1.00
C3       0.13165    0.73632    0.17193   1.00
C3       0.14820    0.90550    0.15679   1.00
C3       0.20855    0.85241    0.18382   1.00
C2       0.06907    0.88885    0.12792   1.00
C2       0.21347    0.75277    0.19858   1.00
C3       0.05092    0.81968    0.12738   1.00
C3       0.16001    0.70971    0.18549   1.00
C3       0.11748    0.92997    0.14271   1.00
C3       0.23631    0.82330    0.19734   1.00
H1       0.06422    0.74337    0.13919   1.00
H1       0.09250    0.70109    0.16337   1.00
C5       0.19847    0.94995    0.17114   1.00
C5       0.23248    0.92422    0.18360   1.00
H1       0.01637    0.78736    0.11687   1.00
H1       0.14088    0.65794    0.18579   1.00
H1       0.13047    0.97994    0.14279   1.00
H1       0.27457    0.85364    0.20701   1.00
C6       0.21439    1.02309    0.17310   1.00
C6       0.29368    0.97192    0.19631   1.00
H2       0.16682    1.02418    0.17294   1.00
H2       0.33269    0.95744    0.19483   1.00
H2       0.23440    1.04383    0.18802   1.00
H2       0.31970    1.02332    0.19014   1.00
C6       0.26542    1.07146    0.15656   1.00
C6       0.27544    0.97494    0.21908   1.00
H2       0.25110    1.04645    0.14176   1.00
H2       0.24087    0.92334    0.22458   1.00
C6       0.27387    1.14411    0.15424   1.00
C6       0.33587    1.01023    0.23450   1.00
H2       0.31542    1.07749    0.15987   1.00
H2       0.24602    1.00117    0.21969   1.00
C6       0.20755    1.14041    0.14636   1.00
C6       0.37392    0.96964    0.23701   1.00
C6       0.29511    1.18409    0.17451   1.00
C6       0.38745    1.08436    0.22809   1.00
C6       0.33088    1.18483    0.13844   1.00
C6       0.30648    1.01278    0.25556   1.00
H2       0.19058    1.11151    0.13222   1.00
H2       0.33868    0.91672    0.24122   1.00
H2       0.16628    1.11603    0.15733   1.00
H2       0.39947    0.96938    0.22305   1.00
H2       0.21536    1.19127    0.14345   1.00
H2       0.41283    0.99198    0.24880   1.00
H2       0.30560    1.23627    0.17240   1.00
H2       0.42667    1.11006    0.23965   1.00
H2       0.25467    1.16007    0.18577   1.00
H2       0.41312    1.08524    0.21402   1.00
H2       0.34091    1.18621    0.18061   1.00
H2       0.36171    1.11368    0.22581   1.00
H2       0.31804    1.15909    0.12376   1.00
H2       0.27019    0.96153    0.26090   1.00
H2       0.33839    1.23591    0.13619   1.00
H2       0.34679    1.03665    0.26691   1.00
H2       0.37943    1.19039    0.14336   1.00
H2       0.28013    1.04201    0.25487   1.00
C4       0.96867    0.49590    0.68048   1.00
C4       1.02663    0.52644    0.66736   1.00
C3       0.92721    0.42389    0.68268   1.00
C3       1.05135    0.48759    0.65718   1.00
C3       0.95067    0.53819    0.69194   1.00
C3       1.06190    0.59855    0.66413   1.00
C2       0.85343    0.43413    0.70777   1.00
C2       1.14179    0.58771    0.64004   1.00
C3       0.87153    0.39383    0.69597   1.00
C3       1.10695    0.51711    0.64385   1.00
C3       0.89382    0.50558    0.70539   1.00
C3       1.11806    0.62657    0.65036   1.00
H1       0.93549    0.39055    0.67455   1.00
H1       1.03031    0.43647    0.65923   1.00
C5       0.98876    0.61092    0.68974   1.00
C5       1.04116    0.64069    0.67462   1.00
H1       0.84383    0.34159    0.69692   1.00
H1       1.12210    0.48626    0.63692   1.00
H1       0.87973    0.53394    0.71390   1.00
H1       1.14413    0.67756    0.64756   1.00
C6       0.97371    0.65528    0.70352   1.00
C6       1.07424    0.71573    0.66943   1.00
H2       0.96728    0.63608    0.71899   1.00
H2       1.07867    0.72169    0.65301   1.00
H2       1.01766    0.70613    0.70510   1.00
H2       1.04105    0.73616    0.67299   1.00
C6       0.91095    0.66143    0.69640   1.00
C6       1.14467    0.76036    0.68020   1.00
H2       0.86941    0.61120    0.69194   1.00
H2       1.17478    0.73489    0.67921   1.00
C6       0.88137    0.69300    0.71166   1.00
C6       1.19035    0.83543    0.67262   1.00
H2       0.92558    0.69190    0.68253   1.00
H2       1.13484    0.76175    0.69637   1.00
C6       0.84928    0.64677    0.73051   1.00
C6       1.21582    0.83789    0.65062   1.00
C6       0.93659    0.76504    0.71870   1.00
C6       1.15215    0.87613    0.67371   1.00
C6       0.82410    0.69972    0.70084   1.00
C6       1.25407    0.87148    0.68653   1.00
H2       0.81083    0.59517    0.72604   1.00
H2       1.24207    0.80865    0.64928   1.00
H2       0.88762    0.64322    0.73956   1.00
H2       1.17382    0.81711    0.63983   1.00
H2       0.82466    0.66680    0.74036   1.00
H2       1.25137    0.89019    0.64599   1.00
H2       0.91444    0.78855    0.72817   1.00
H2       1.18592    0.92959    0.66978   1.00
H2       0.97585    0.76265    0.72763   1.00
H2       1.10944    0.85566    0.66313   1.00
H2       0.96100    0.79823    0.70569   1.00
H2       1.13243    0.87401    0.68895   1.00
H2       0.78335    0.65002    0.69574   1.00
H2       1.28334    0.84510    0.68615   1.00
H2       0.80148    0.72117    0.71095   1.00
H2       1.28787    0.92407    0.68175   1.00
H2       0.84390    0.73295    0.68760   1.00
H2       1.23946    0.87261    0.70224   1.00
C4       0.52645    0.03168    0.68035   1.00
C4       0.49867    -0.02639   0.66727   1.00
C3       0.50167    0.07843    0.68062   1.00
C3       0.43971    -0.04573   0.65513   1.00
C3       0.58119    0.04433    0.69376   1.00
C3       0.53035    -0.06734   0.66611   1.00
C2       0.58032    0.14726    0.70751   1.00
C2       0.44442    -0.14186   0.64006   1.00
C3       0.52746    0.13430    0.69384   1.00
C3       0.41352    -0.10147   0.64185   1.00
C3       0.60577    0.10158    0.70706   1.00
C3       0.50231    -0.12345   0.65232   1.00
H1       0.46440    0.07403    0.67108   1.00
H1       0.41318    -0.02045   0.65562   1.00
C5       0.61019    0.00069    0.69358   1.00
C5       0.58813    -0.05210   0.67860   1.00
H1       0.50720    0.16597    0.69335   1.00
H1       0.37101    -0.11259   0.63345   1.00
H1       0.64433    0.11199    0.71691   1.00
H1       0.52369    -0.15348   0.65096   1.00
C6       0.66303    0.01037    0.70930   1.00
C6       0.62548    -0.09131   0.67565   1.00
H2       0.64680    0.01869    0.72407   1.00
H2       0.63171    -0.09635   0.65947   1.00
H2       0.66418    -0.03643   0.71191   1.00
H2       0.67817    -0.06213   0.68068   1.00
C6       0.73669    0.06879    0.70380   1.00
C6       0.59018    -0.16228   0.68659   1.00
H2       0.73452    0.11321    0.69830   1.00
H2       0.53517    -0.18798   0.68399   1.00
C6       0.79228    0.09355    0.72082   1.00
C6       0.61515    -0.21341   0.68100   1.00
H2       0.75437    0.05156    0.69089   1.00
H2       0.59657    -0.15293   0.70292   1.00
C6       0.77648    0.12897    0.73843   1.00
C6       0.59789    -0.23801   0.65870   1.00
C6       0.79975    0.03396    0.72943   1.00
C6       0.69285    -0.18170   0.68446   1.00
C6       0.86191    0.14667    0.71153   1.00
C6       0.57782    -0.27710   0.69487   1.00
H2       0.76980    0.17063    0.73280   1.00
H2       0.54350    -0.25968   0.65567   1.00
H2       0.73016    0.09334    0.74647   1.00
H2       0.62582    -0.19636   0.64805   1.00
H2       0.81781    0.15021    0.74951   1.00
H2       0.61120    -0.27713   0.65536   1.00
H2       0.84187    0.05249    0.74022   1.00
H2       0.70886    -0.21926   0.68191   1.00
H2       0.75359    -0.00267   0.73737   1.00
H2       0.72174    -0.13941   0.67407   1.00
H2       0.80948    0.00724    0.71727   1.00
H2       0.70658    -0.16266   0.69994   1.00
H2       0.85962    0.19028    0.70540   1.00
H2       0.52265    -0.30191   0.69285   1.00
H2       0.90240    0.16587    0.72289   1.00
H2       0.59326    -0.31462   0.69143   1.00
H2       0.87658    0.12429    0.69925   1.00
H2       0.58911    -0.26322   0.71083   1.00
C4       0.50518    0.47352    0.68036   1.00
C4       0.47487    0.50128    0.66727   1.00
C3       0.57675    0.49854    0.68070   1.00
C3       0.51448    0.56044    0.65520   1.00
C3       0.46306    0.41856    0.69370   1.00
C3       0.40225    0.46940    0.66604   1.00
C2       0.56689    0.41967    0.70752   1.00
C2       0.41366    0.55552    0.64006   1.00
C3       0.60683    0.47275    0.69392   1.00
C3       0.48494    0.58662    0.64192   1.00
C3       0.49573    0.39399    0.70700   1.00
C3       0.37418    0.49745    0.65225   1.00
H1       0.60965    0.53598    0.67121   1.00
H1       0.56629    0.58711    0.65576   1.00
C5       0.39039    0.38933    0.69344   1.00
C5       0.35970    0.41141    0.67845   1.00
H1       0.65878    0.49318    0.69348   1.00
H1       0.51633    0.62928    0.63357   1.00
H1       0.46755    0.35528    0.71680   1.00
H1       0.32277    0.47592    0.65084   1.00
C6       0.34717    0.33623    0.70910   1.00
C6       0.28317    0.37386    0.67543   1.00
H2       0.37152    0.35234    0.72389   1.00
H2       0.27210    0.36780    0.65923   1.00
H2       0.29909    0.33486    0.71167   1.00
H2       0.25977    0.32113    0.68039   1.00
C6       0.33225    0.26272    0.70353   1.00
C6       0.24716    0.40882    0.68637   1.00
H2       0.37900    0.26515    0.69807   1.00
H2       0.27634    0.46387    0.68382   1.00
C6       0.30138    0.20692    0.72048   1.00
C6       0.17107    0.38367    0.68070   1.00
H2       0.29750    0.24510    0.69058   1.00
H2       0.24995    0.40226    0.70269   1.00
C6       0.35243    0.22267    0.73814   1.00
C6       0.16392    0.40114    0.65841   1.00
C6       0.23412    0.19909    0.72904   1.00
C6       0.12526    0.30590    0.68407   1.00
C6       0.28523    0.13747    0.71113   1.00
C6       0.14434    0.42065    0.69457   1.00
H2       0.40090    0.22960    0.73255   1.00
H2       0.19653    0.45558    0.65544   1.00
H2       0.36285    0.26883    0.74622   1.00
H2       0.17791    0.37346    0.64775   1.00
H2       0.33232    0.18121    0.74918   1.00
H2       0.11149    0.38769    0.65502   1.00
H2       0.21051    0.15683    0.73978   1.00
H2       0.07168    0.28973    0.68147   1.00
H2       0.24338    0.24510    0.73702   1.00
H2       0.13893    0.27725    0.67366   1.00
H2       0.19778    0.18938    0.71685   1.00
H2       0.13044    0.29202    0.69954   1.00
H2       0.33129    0.14002    0.70504   1.00
H2       0.17457    0.47586    0.69262   1.00
H2       0.26392    0.09684    0.72244   1.00
H2       0.09138    0.40507    0.69109   1.00
H2       0.24831    0.12284    0.69881   1.00
H2       0.14678    0.40919    0.71053   1.00
C4       0.50800    0.04133    0.17683   1.00
C4       0.47854    -0.01384   0.16269   1.00
C3       0.57235    0.06313    0.18621   1.00
C3       0.51438    -0.04629   0.15533   1.00
C3       0.47241    0.07657    0.18199   1.00
C3       0.41073    -0.03809   0.15543   1.00
C2       0.56917    0.15504    0.20467   1.00
C2       0.41782    -0.12760   0.13485   1.00
C3       0.60226    0.11844    0.19963   1.00
C3       0.48495    -0.10166   0.14192   1.00
C3       0.50482    0.13288    0.19564   1.00
C3       0.38247    -0.09484   0.14187   1.00
H1       0.59959    0.03920    0.18380   1.00
H1       0.56346    -0.03048   0.15929   1.00
C5       0.40617    0.05515    0.17369   1.00
C5       0.37315    -0.00563   0.16163   1.00
H1       0.64891    0.13179    0.20583   1.00
H1       0.51339    -0.12300   0.13724   1.00
H1       0.48133    0.15949    0.19957   1.00
H1       0.33424    -0.11382   0.13649   1.00
C6       0.37236    0.09729    0.17757   1.00
C6       0.29904    -0.03629   0.15557   1.00
H2       0.41001    0.15110    0.17573   1.00
H2       0.27336    -0.09137   0.15765   1.00
H2       0.33577    0.08993    0.16578   1.00
H2       0.27123    -0.02209   0.16606   1.00
C6       0.33609    0.08270    0.19872   1.00
C6       0.28942    -0.01682   0.13349   1.00
H2       0.36917    0.08019    0.21036   1.00
H2       0.32476    -0.02159   0.12324   1.00
C6       0.31273    0.13336    0.20628   1.00
C6       0.21641    -0.05723   0.12397   1.00
H2       0.29142    0.03158    0.19818   1.00
H2       0.30530    0.03737    0.13344   1.00
C6       0.37444    0.20519    0.21060   1.00
C6       0.19425    -0.13327   0.12046   1.00
C6       0.26465    0.13968    0.19083   1.00
C6       0.16259    -0.05272   0.13737   1.00
C6       0.27296    0.10573    0.22648   1.00
C6       0.21753    -0.02549   0.10300   1.00
H2       0.40996    0.20235    0.22122   1.00
H2       0.23179    -0.13820   0.11132   1.00
H2       0.40237    0.22946    0.19677   1.00
H2       0.18832    -0.15988   0.13473   1.00
H2       0.35789    0.23875    0.21719   1.00
H2       0.14543    -0.15987   0.11255   1.00
H2       0.24481    0.17123    0.19686   1.00
H2       0.11288    -0.07686   0.12993   1.00
H2       0.29152    0.16328    0.17678   1.00
H2       0.15638    -0.07851   0.15183   1.00
H2       0.22148    0.08962    0.18720   1.00
H2       0.17769    0.00033    0.14043   1.00
H2       0.30493    0.10096    0.23801   1.00
H2       0.25431    -0.02803   0.09285   1.00
H2       0.25592    0.13969    0.23245   1.00
H2       0.16765    -0.05233   0.09567   1.00
H2       0.22792    0.05560    0.22433   1.00
H2       0.23151    0.02795    0.10452   1.00
C4       0.96763    0.47445    0.18010   1.00
C4       1.02392    0.50454    0.16635   1.00
C3       0.96773    0.43831    0.19778   1.00
C3       1.08684    0.50683    0.17040   1.00
C3       0.90852    0.48011    0.17624   1.00
C3       1.01800    0.53379    0.14778   1.00
C2       0.85522    0.41645    0.20844   1.00
C2       1.13662    0.56238    0.13811   1.00
C3       0.91346    0.41045    0.21159   1.00
C3       1.14142    0.53453    0.15670   1.00
C3       0.85449    0.45134    0.19074   1.00
C3       1.07464    0.56116    0.13418   1.00
H1       1.00696    0.43029    0.20118   1.00
H1       1.09562    0.48907    0.18356   1.00
C5       0.90426    0.51341    0.15825   1.00
C5       0.95696    0.53557    0.14324   1.00
H1       0.91677    0.38522    0.22410   1.00
H1       1.18534    0.53439    0.16048   1.00
H1       0.81182    0.45474    0.18860   1.00
H1       1.07220    0.58199    0.12076   1.00
C6       0.84471    0.52541    0.15545   1.00
C6       0.94864    0.56002    0.12263   1.00
H2       0.83501    0.54343    0.16970   1.00
H2       0.96587    0.53795    0.11098   1.00
H2       0.85760    0.56835    0.14545   1.00
H2       0.89523    0.53883    0.11865   1.00
C6       0.77897    0.46126    0.14723   1.00
C6       0.98551    0.63967    0.12090   1.00
H2       0.77118    0.41580    0.15534   1.00
H2       1.03633    0.66201    0.12763   1.00
C6       0.71050    0.46250    0.14800   1.00
C6       0.99336    0.67098    0.09922   1.00
H2       0.78862    0.45344    0.13149   1.00
H2       0.95775    0.65721    0.13038   1.00
C6       0.68725    0.46248    0.17013   1.00
C6       1.04149    0.65764    0.08566   1.00
C6       0.71627    0.52501    0.13660   1.00
C6       0.92350    0.64288    0.08850   1.00
C6       0.65411    0.39712    0.13749   1.00
C6       1.02544    0.74941    0.10134   1.00
H2       0.68376    0.41954    0.17869   1.00
H2       1.09094    0.67591    0.09296   1.00
H2       0.72259    0.50917    0.17806   1.00
H2       1.01998    0.60352    0.08250   1.00
H2       0.63724    0.45857    0.17052   1.00
H2       1.05039    0.68363    0.07110   1.00
H2       0.66704    0.52282    0.13598   1.00
H2       0.92898    0.66857    0.07403   1.00
H2       0.75198    0.57238    0.14421   1.00
H2       0.90078    0.58854    0.08538   1.00
H2       0.73395    0.52703    0.12109   1.00
H2       0.88816    0.65035    0.09792   1.00
H2       0.64746    0.35136    0.14510   1.00
H2       1.07534    0.77196    0.10864   1.00
H2       0.60508    0.39542    0.13776   1.00
H2       1.03239    0.77371    0.08655   1.00
H2       0.66694    0.39488    0.12166   1.00
H2       0.99308    0.76215    0.11043   1.00
C4       0.52628    0.49452    0.18032   1.00
C4       0.49602    0.52085    0.16668   1.00
C3       0.57168    0.53472    0.19608   1.00
C3       0.50329    0.58668    0.16916   1.00
C3       0.51123    0.42548    0.17831   1.00
C3       0.45673    0.48048    0.14985   1.00
C2       0.58489    0.44035    0.20852   1.00
C2       0.43765    0.57551    0.13856   1.00
C3       0.59989    0.50849    0.20984   1.00
C3       0.47533    0.61342    0.15550   1.00
C3       0.54071    0.40061    0.19270   1.00
C3       0.42943    0.50974    0.13622   1.00
H1       0.58650    0.58478    0.19804   1.00
H1       0.52859    0.61740    0.18111   1.00
C5       0.46816    0.38338    0.16221   1.00
C5       0.44524    0.41272    0.14704   1.00
H1       0.63206    0.54004    0.22092   1.00
H1       0.48263    0.66134    0.15809   1.00
H1       0.53084    0.35166    0.19185   1.00
H1       0.40160    0.48280    0.12401   1.00
C6       0.44685    0.30848    0.16157   1.00
C6       0.40982    0.37342    0.12803   1.00
H2       0.43273    0.28729    0.17680   1.00
H2       0.43023    0.40728    0.11498   1.00
H2       0.39920    0.27873    0.15340   1.00
H2       0.42361    0.33500    0.12447   1.00
C6       0.50237    0.29484    0.15206   1.00
C6       0.33018    0.33850    0.12918   1.00
H2       0.55251    0.33153    0.15811   1.00
H2       0.31600    0.37421    0.13559   1.00
C6       0.49273    0.22181    0.15467   1.00
C6       0.28916    0.30954    0.10901   1.00
H2       0.50515    0.30602    0.13585   1.00
H2       0.31227    0.29685    0.14014   1.00
C6       0.49917    0.20599    0.17719   1.00
C6       0.30351    0.36722    0.09369   1.00
C6       0.42306    0.16604    0.14625   1.00
C6       0.30528    0.25748    0.09888   1.00
C6       0.54976    0.21825    0.14260   1.00
C6       0.21182    0.27220    0.11404   1.00
H2       0.54740    0.24508    0.18369   1.00
H2       0.29369    0.40544    0.10050   1.00
H2       0.45800    0.20350    0.18637   1.00
H2       0.35624    0.39298    0.08852   1.00
H2       0.49711    0.15700    0.17869   1.00
H2       0.27122    0.34703    0.08029   1.00
H2       0.41887    0.11591    0.14681   1.00
H2       0.27290    0.23400    0.08564   1.00
H2       0.38109    0.16320    0.15512   1.00
H2       0.35810    0.28219    0.09377   1.00
H2       0.41662    0.17675    0.13052   1.00
H2       0.29695    0.21706    0.10949   1.00
H2       0.60016    0.25624    0.14811   1.00
H2       0.19756    0.30697    0.12106   1.00
H2       0.54546    0.16822    0.14407   1.00
H2       0.18095    0.25141    0.10039   1.00
H2       0.54705    0.22764    0.12648   1.00
H2       0.19820    0.22994    0.12450   1.00
C4       0.70805    0.84097    0.65653   1.00
C4       0.65282    0.81137    0.67065   1.00
C3       0.73207    0.90687    0.64796   1.00
C3       0.62254    0.84828    0.67880   1.00
C3       0.74107    0.80393    0.65056   1.00
C3       0.62627    0.74232    0.67706   1.00
C2       0.82191    0.90225    0.62874   1.00
C2       0.53894    0.75056    0.69844   1.00
C3       0.78746    0.93682    0.63457   1.00
C3       0.56712    0.81882    0.69219   1.00
C3       0.79754    0.83640    0.63697   1.00
C3       0.56954    0.71410    0.69064   1.00
H1       0.70978    0.93530    0.65098   1.00
H1       0.64005    0.89817    0.67547   1.00
C5       0.71735    0.73622    0.65801   1.00
C5       0.65649    0.70350    0.67004   1.00
H1       0.80247    0.98462    0.62899   1.00
H1       0.54741    0.84808    0.69746   1.00
H1       0.82262    0.81188    0.63248   1.00
H1       0.54895    0.66503    0.69543   1.00
C6       0.75719    0.70054    0.65329   1.00
C6       0.62339    0.62845    0.67522   1.00
H2       0.81141    0.73647    0.65528   1.00
H2       0.56843    0.60480    0.67318   1.00
H2       0.74846    0.66202    0.66458   1.00
H2       0.63615    0.60087    0.66420   1.00
C6       0.74144    0.66691    0.63172   1.00
C6       0.64202    0.61499    0.69698   1.00
H2       0.74038    0.70223    0.62062   1.00
H2       0.63880    0.64987    0.70779   1.00
C6       0.79006    0.64200    0.62341   1.00
C6       0.59942    0.54100    0.70569   1.00
H2       0.68955    0.62341    0.63199   1.00
H2       0.69570    0.62894    0.69683   1.00
C6       0.86292    0.70250    0.61947   1.00
C6       0.52408    0.52108    0.70947   1.00
C6       0.79423    0.59075    0.63808   1.00
C6       0.60163    0.48770    0.69146   1.00
C6       0.76139    0.60522    0.60286   1.00
C6       0.63050    0.53813    0.72641   1.00
H2       0.86163    0.74019    0.60942   1.00
H2       0.52081    0.55836    0.71921   1.00
H2       0.88781    0.72819    0.63351   1.00
H2       0.49782    0.51797    0.69533   1.00
H2       0.89508    0.68512    0.61237   1.00
H2       0.49601    0.47140    0.71684   1.00
H2       0.82428    0.57001    0.63149   1.00
H2       0.57592    0.43706    0.69833   1.00
H2       0.81841    0.61535    0.65233   1.00
H2       0.57615    0.48430    0.67712   1.00
H2       0.74343    0.54833    0.64144   1.00
H2       0.65417    0.50131    0.68821   1.00
H2       0.75808    0.63949    0.59185   1.00
H2       0.62952    0.57440    0.73713   1.00
H2       0.79393    0.58724    0.59636   1.00
H2       0.60215    0.48744    0.73319   1.00
H2       0.71047    0.56109    0.60472   1.00
H2       0.68337    0.55038    0.72468   1.00
C4       0.12723    0.29329    0.65602   1.00
C4       0.15288    0.34999    0.66960   1.00
C3       0.13493    0.23552    0.65974   1.00
C3       0.18155    0.34979    0.68882   1.00
C3       0.09251    0.29355    0.63793   1.00
C3       0.15006    0.40955    0.66401   1.00
C2       0.07247    0.17713    0.62907   1.00
C2       0.20780    0.46588    0.69666   1.00
C3       0.10814    0.17901    0.64676   1.00
C3       0.20852    0.40602    0.70192   1.00
C3       0.06565    0.23483    0.62516   1.00
C3       0.17842    0.46587    0.67774   1.00
H1       0.16090    0.23262    0.67193   1.00
H1       0.18331    0.30853    0.69412   1.00
C5       0.08567    0.35149    0.63294   1.00
C5       0.11920    0.41167    0.64524   1.00
H1       0.11520    0.13882    0.65034   1.00
H1       0.22873    0.40276    0.71554   1.00
H1       0.04024    0.23291    0.61224   1.00
H1       0.17779    0.50928    0.67424   1.00
C6       0.04261    0.34811    0.61492   1.00
C6       0.12308    0.47748    0.63854   1.00
H2       -0.00443   0.29898    0.61495   1.00
H2       0.17446    0.51970    0.64126   1.00
H2       0.02334    0.38323    0.61655   1.00
H2       0.11896    0.47963    0.62216   1.00
C6       0.08121    0.36212    0.59418   1.00
C6       0.06782    0.49003    0.64877   1.00
H2       0.10909    0.33428    0.59367   1.00
H2       0.06477    0.47828    0.66495   1.00
C6       0.03783    0.34523    0.57431   1.00
C6       0.07620    0.56268    0.64657   1.00
H2       0.12035    0.41600    0.59381   1.00
H2       0.01822    0.45280    0.64255   1.00
C6       -0.01194   0.26751    0.57203   1.00
C6       0.14033    0.61751    0.65791   1.00
C6       -0.00310   0.38323    0.57353   1.00
C6       0.08013    0.58362    0.62403   1.00
C6       0.08695    0.36871    0.55584   1.00
C6       0.01305    0.56155    0.65619   1.00
H2       0.01527    0.23910    0.57286   1.00
H2       0.13964    0.60366    0.67382   1.00
H2       -0.05066   0.24828    0.58387   1.00
H2       0.18703    0.62401    0.65111   1.00
H2       -0.03849   0.25581    0.55749   1.00
H2       0.14314    0.66703    0.65748   1.00
H2       -0.02927   0.37500    0.55901   1.00
H2       0.08104    0.63210    0.62262   1.00
H2       -0.04174   0.36517    0.58540   1.00
H2       0.12627    0.58974    0.61688   1.00
H2       0.03059    0.43797    0.57553   1.00
H2       0.03624    0.54513    0.61560   1.00
H2       0.11665    0.34279    0.55556   1.00
H2       0.00831    0.54770    0.67222   1.00
H2       0.05894    0.35757    0.54156   1.00
H2       0.01675    0.61142    0.65515   1.00
H2       0.12255    0.42353    0.55637   1.00
H2       -0.03383   0.52471    0.64855   1.00
C4       0.16566    0.87257    0.65609   1.00
C4       0.19668    0.84699    0.66971   1.00
C3       0.09881    0.86199    0.65927   1.00
C3       0.16608    0.81538    0.68849   1.00
C3       0.20210    0.91020    0.63853   1.00
C3       0.26079    0.85289    0.66461   1.00
C2       0.10418    0.92714    0.62910   1.00
C2       0.25772    0.79222    0.69680   1.00
C3       0.06903    0.88868    0.64627   1.00
C3       0.19539    0.78849    0.70160   1.00
C3       0.17011    0.93684    0.62572   1.00
C3       0.28876    0.82451    0.67832   1.00
H1       0.06898    0.83392    0.67105   1.00
H1       0.12168    0.81131    0.69345   1.00
C5       0.26843    0.92007    0.63406   1.00
C5       0.29544    0.88674    0.64631   1.00
H1       0.02075    0.87947    0.64945   1.00
H1       0.17064    0.76607    0.71489   1.00
H1       0.19459    0.96425    0.61317   1.00
H1       0.33403    0.82729    0.67515   1.00
C6       0.30932    0.96603    0.61667   1.00
C6       0.35950    0.88622    0.64005   1.00
H2       0.30529    1.01201    0.61701   1.00
H2       0.35189    0.83520    0.64232   1.00
H2       0.36376    0.98683    0.61883   1.00
H2       0.36771    0.89254    0.62376   1.00
C6       0.28833    0.92987    0.59549   1.00
C6       0.42513    0.94171    0.65117   1.00
H2       0.23274    0.90044    0.59436   1.00
H2       0.41417    0.94233    0.66729   1.00
C6       0.31598    0.97586    0.57614   1.00
C6       0.49121    0.93630    0.64938   1.00
H2       0.30497    0.89217    0.59495   1.00
H2       0.43649    0.99153    0.64539   1.00
C6       0.28579    1.02378    0.57401   1.00
C6       0.48294    0.87173    0.66019   1.00
C6       0.39486    1.01913    0.57623   1.00
C6       0.51144    0.93594    0.62695   1.00
C6       0.29409    0.92907    0.55715   1.00
C6       0.55070    0.99936    0.65990   1.00
H2       0.23011    0.99484    0.57423   1.00
H2       0.46756    0.86990    0.67598   1.00
H2       0.30266    1.06097    0.58625   1.00
H2       0.44468    0.82527    0.65276   1.00
H2       0.30161    1.05217    0.55978   1.00
H2       0.53069    0.87086    0.66008   1.00
H2       0.41384    1.04727    0.56204   1.00
H2       0.56011    0.93709    0.62589   1.00
H2       0.41282    1.05628    0.58852   1.00
H2       0.47338    0.89008    0.61919   1.00
H2       0.41740    0.98672    0.57814   1.00
H2       0.51620    0.98017    0.61888   1.00
H2       0.23863    0.89784    0.55624   1.00
H2       0.53928    1.00164    0.67588   1.00
H2       0.31187    0.95893    0.54320   1.00
H2       0.59800    0.99768    0.65917   1.00
H2       0.31502    0.89490    0.55756   1.00
H2       0.55997    1.04661    0.65268   1.00
