data_IRMOF10_interpen_symm_ligand3cp_label_a_1.

_audit_creation_method             'generated by an auxiliary program of Tobunporous'

_symmetry_space_group_name_H-M     'P 1'
_symmetry_Int_Tables_number        1
_symmetry_cell_setting             triclinic

_cell_length_a                    22.6523
_cell_length_b                    22.6523
_cell_length_c                    65.9502
_cell_angle_alpha                 90.0000
_cell_angle_beta                  90.0000
_cell_angle_gamma                 120.0000

loop_
_atom_site_label
_atom_site_fract_x
_atom_site_fract_y
_atom_site_fract_z
_atom_site_occupancy
O1       0.00000    0.00000    0.57470   1.00
Zn1      0.00000    0.00000    0.54560   1.00
Zn1      0.94843    0.04287    0.58357   1.00
Zn1      0.09443    0.05157    0.58357   1.00
Zn1      0.95713    0.90557    0.58357   1.00
O2       0.93860    0.02610    0.53560   1.00
O2       0.08750    0.06140    0.53560   1.00
O2       0.97390    0.91250    0.53560   1.00
O2       0.91300    0.07160    0.56150   1.00
O2       0.00463    0.12027    0.60077   1.00
O2       0.87413    0.98077    0.60037   1.00
O2       0.15860    0.08700    0.56150   1.00
O2       0.10663    0.12587    0.60037   1.00
O2       0.11563    0.99537    0.60077   1.00
O2       0.92840    0.84140    0.56150   1.00
O2       0.87973    0.88437    0.60077   1.00
O2       0.01923    0.89337    0.60037   1.00
C1       0.91390    0.06020    0.54330   1.00
C1       0.14630    0.08610    0.54330   1.00
C1       0.93980    0.85370    0.54330   1.00
C1       0.06663    0.14397    0.60637   1.00
C1       0.85603    0.92267    0.60637   1.00
C1       0.07733    0.93337    0.60637   1.00
O1       0.00000    0.00000    0.92530   1.00
Zn1      0.00000    0.00000    0.95440   1.00
Zn1      0.04287    0.94843    0.91643   1.00
Zn1      0.05157    0.09443    0.91643   1.00
Zn1      0.90557    0.95713    0.91643   1.00
O2       0.02610    0.93860    0.96440   1.00
O2       0.06140    0.08750    0.96440   1.00
O2       0.91250    0.97390    0.96440   1.00
O2       0.07160    0.91300    0.93850   1.00
O2       0.12027    0.00463    0.89923   1.00
O2       0.98077    0.87413    0.89963   1.00
O2       0.08700    0.15860    0.93850   1.00
O2       0.12587    0.10663    0.89963   1.00
O2       0.99537    0.11563    0.89923   1.00
O2       0.84140    0.92840    0.93850   1.00
O2       0.88437    0.87973    0.89923   1.00
O2       0.89337    0.01923    0.89963   1.00
C1       0.06020    0.91390    0.95670   1.00
C1       0.08610    0.14630    0.95670   1.00
C1       0.85370    0.93980    0.95670   1.00
C1       0.14397    0.06663    0.89363   1.00
C1       0.92267    0.85603    0.89363   1.00
C1       0.93337    0.07733    0.89363   1.00
O1       0.00000    0.00000    0.42530   1.00
Zn1      0.00000    0.00000    0.45440   1.00
Zn1      0.05157    0.95713    0.41643   1.00
Zn1      0.90557    0.94843    0.41643   1.00
Zn1      0.04287    0.09443    0.41643   1.00
O2       0.06140    0.97390    0.46440   1.00
O2       0.91250    0.93860    0.46440   1.00
O2       0.02610    0.08750    0.46440   1.00
O2       0.08700    0.92840    0.43850   1.00
O2       0.99537    0.87973    0.39923   1.00
O2       0.12587    0.01923    0.39963   1.00
O2       0.84140    0.91300    0.43850   1.00
O2       0.89337    0.87413    0.39963   1.00
O2       0.88437    0.00463    0.39923   1.00
O2       0.07160    0.15860    0.43850   1.00
O2       0.12027    0.11563    0.39923   1.00
O2       0.98077    0.10663    0.39963   1.00
C1       0.08610    0.93980    0.45670   1.00
C1       0.85370    0.91390    0.45670   1.00
C1       0.06020    0.14630    0.45670   1.00
C1       0.93337    0.85603    0.39363   1.00
C1       0.14397    0.07733    0.39363   1.00
C1       0.92267    0.06663    0.39363   1.00
O1       0.00000    0.00000    0.07470   1.00
Zn1      0.00000    0.00000    0.04560   1.00
Zn1      0.95713    0.05157    0.08357   1.00
Zn1      0.94843    0.90557    0.08357   1.00
Zn1      0.09443    0.04287    0.08357   1.00
O2       0.97390    0.06140    0.03560   1.00
O2       0.93860    0.91250    0.03560   1.00
O2       0.08750    0.02610    0.03560   1.00
O2       0.92840    0.08700    0.06150   1.00
O2       0.87973    0.99537    0.10077   1.00
O2       0.01923    0.12587    0.10037   1.00
O2       0.91300    0.84140    0.06150   1.00
O2       0.87413    0.89337    0.10037   1.00
O2       0.00463    0.88437    0.10077   1.00
O2       0.15860    0.07160    0.06150   1.00
O2       0.11563    0.12027    0.10077   1.00
O2       0.10663    0.98077    0.10037   1.00
C1       0.93980    0.08610    0.04330   1.00
C1       0.91390    0.85370    0.04330   1.00
C1       0.14630    0.06020    0.04330   1.00
C1       0.85603    0.93337    0.10637   1.00
C1       0.07733    0.14397    0.10637   1.00
C1       0.06663    0.92267    0.10637   1.00
O1       0.66667    0.33333    0.90803   1.00
Zn1      0.66667    0.33333    0.87893   1.00
Zn1      0.61510    0.37620    0.91690   1.00
Zn1      0.76110    0.38490    0.91690   1.00
Zn1      0.62380    0.23890    0.91690   1.00
O2       0.60527    0.35943    0.86893   1.00
O2       0.75417    0.39473    0.86893   1.00
O2       0.64057    0.24583    0.86893   1.00
O2       0.57967    0.40493    0.89483   1.00
O2       0.67130    0.45360    0.93410   1.00
O2       0.54080    0.31410    0.93370   1.00
O2       0.82527    0.42033    0.89483   1.00
O2       0.77330    0.45920    0.93370   1.00
O2       0.78230    0.32870    0.93410   1.00
O2       0.59507    0.17473    0.89483   1.00
O2       0.54640    0.21770    0.93410   1.00
O2       0.68590    0.22670    0.93370   1.00
C1       0.58057    0.39353    0.87663   1.00
C1       0.81297    0.41943    0.87663   1.00
C1       0.60647    0.18703    0.87663   1.00
C1       0.73330    0.47730    0.93970   1.00
C1       0.52270    0.25600    0.93970   1.00
C1       0.74400    0.26670    0.93970   1.00
O1       0.66667    0.33333    0.25863   1.00
Zn1      0.66667    0.33333    0.28773   1.00
Zn1      0.70953    0.28177    0.24977   1.00
Zn1      0.71823    0.42777    0.24977   1.00
Zn1      0.57223    0.29047    0.24977   1.00
O2       0.69277    0.27193    0.29773   1.00
O2       0.72807    0.42083    0.29773   1.00
O2       0.57917    0.30723    0.29773   1.00
O2       0.73827    0.24633    0.27183   1.00
O2       0.78693    0.33797    0.23257   1.00
O2       0.64743    0.20747    0.23297   1.00
O2       0.75367    0.49193    0.27183   1.00
O2       0.79253    0.43997    0.23297   1.00
O2       0.66203    0.44897    0.23257   1.00
O2       0.50807    0.26173    0.27183   1.00
O2       0.55103    0.21307    0.23257   1.00
O2       0.56003    0.35257    0.23297   1.00
C1       0.72687    0.24723    0.29003   1.00
C1       0.75277    0.47963    0.29003   1.00
C1       0.52037    0.27313    0.29003   1.00
C1       0.81063    0.39997    0.22697   1.00
C1       0.58933    0.18937    0.22697   1.00
C1       0.60003    0.41067    0.22697   1.00
O1       0.66667    0.33333    0.75863   1.00
Zn1      0.66667    0.33333    0.78773   1.00
Zn1      0.71823    0.29047    0.74977   1.00
Zn1      0.57223    0.28177    0.74977   1.00
Zn1      0.70953    0.42777    0.74977   1.00
O2       0.72807    0.30723    0.79773   1.00
O2       0.57917    0.27193    0.79773   1.00
O2       0.69277    0.42083    0.79773   1.00
O2       0.75367    0.26173    0.77183   1.00
O2       0.66203    0.21307    0.73257   1.00
O2       0.79253    0.35257    0.73297   1.00
O2       0.50807    0.24633    0.77183   1.00
O2       0.56003    0.20747    0.73297   1.00
O2       0.55103    0.33797    0.73257   1.00
O2       0.73827    0.49193    0.77183   1.00
O2       0.78693    0.44897    0.73257   1.00
O2       0.64743    0.43997    0.73297   1.00
C1       0.75277    0.27313    0.79003   1.00
C1       0.52037    0.24723    0.79003   1.00
C1       0.72687    0.47963    0.79003   1.00
C1       0.60003    0.18937    0.72697   1.00
C1       0.81063    0.41067    0.72697   1.00
C1       0.58933    0.39997    0.72697   1.00
O1       0.66667    0.33333    0.40803   1.00
Zn1      0.66667    0.33333    0.37893   1.00
Zn1      0.62380    0.38490    0.41690   1.00
Zn1      0.61510    0.23890    0.41690   1.00
Zn1      0.76110    0.37620    0.41690   1.00
O2       0.64057    0.39473    0.36893   1.00
O2       0.60527    0.24583    0.36893   1.00
O2       0.75417    0.35943    0.36893   1.00
O2       0.59507    0.42033    0.39483   1.00
O2       0.54640    0.32870    0.43410   1.00
O2       0.68590    0.45920    0.43370   1.00
O2       0.57967    0.17473    0.39483   1.00
O2       0.54080    0.22670    0.43370   1.00
O2       0.67130    0.21770    0.43410   1.00
O2       0.82527    0.40493    0.39483   1.00
O2       0.78230    0.45360    0.43410   1.00
O2       0.77330    0.31410    0.43370   1.00
C1       0.60647    0.41943    0.37663   1.00
C1       0.58057    0.18703    0.37663   1.00
C1       0.81297    0.39353    0.37663   1.00
C1       0.52270    0.26670    0.43970   1.00
C1       0.74400    0.47730    0.43970   1.00
C1       0.73330    0.25600    0.43970   1.00
O1       0.33333    0.66667    0.24137   1.00
Zn1      0.33333    0.66667    0.21227   1.00
Zn1      0.28177    0.70953    0.25023   1.00
Zn1      0.42777    0.71823    0.25023   1.00
Zn1      0.29047    0.57223    0.25023   1.00
O2       0.27193    0.69277    0.20227   1.00
O2       0.42083    0.72807    0.20227   1.00
O2       0.30723    0.57917    0.20227   1.00
O2       0.24633    0.73827    0.22817   1.00
O2       0.33797    0.78693    0.26743   1.00
O2       0.20747    0.64743    0.26703   1.00
O2       0.49193    0.75367    0.22817   1.00
O2       0.43997    0.79253    0.26703   1.00
O2       0.44897    0.66203    0.26743   1.00
O2       0.26173    0.50807    0.22817   1.00
O2       0.21307    0.55103    0.26743   1.00
O2       0.35257    0.56003    0.26703   1.00
C1       0.24723    0.72687    0.20997   1.00
C1       0.47963    0.75277    0.20997   1.00
C1       0.27313    0.52037    0.20997   1.00
C1       0.39997    0.81063    0.27303   1.00
C1       0.18937    0.58933    0.27303   1.00
C1       0.41067    0.60003    0.27303   1.00
O1       0.33333    0.66667    0.59197   1.00
Zn1      0.33333    0.66667    0.62107   1.00
Zn1      0.37620    0.61510    0.58310   1.00
Zn1      0.38490    0.76110    0.58310   1.00
Zn1      0.23890    0.62380    0.58310   1.00
O2       0.35943    0.60527    0.63107   1.00
O2       0.39473    0.75417    0.63107   1.00
O2       0.24583    0.64057    0.63107   1.00
O2       0.40493    0.57967    0.60517   1.00
O2       0.45360    0.67130    0.56590   1.00
O2       0.31410    0.54080    0.56630   1.00
O2       0.42033    0.82527    0.60517   1.00
O2       0.45920    0.77330    0.56630   1.00
O2       0.32870    0.78230    0.56590   1.00
O2       0.17473    0.59507    0.60517   1.00
O2       0.21770    0.54640    0.56590   1.00
O2       0.22670    0.68590    0.56630   1.00
C1       0.39353    0.58057    0.62337   1.00
C1       0.41943    0.81297    0.62337   1.00
C1       0.18703    0.60647    0.62337   1.00
C1       0.47730    0.73330    0.56030   1.00
C1       0.25600    0.52270    0.56030   1.00
C1       0.26670    0.74400    0.56030   1.00
O1       0.33333    0.66667    0.09197   1.00
Zn1      0.33333    0.66667    0.12107   1.00
Zn1      0.38490    0.62380    0.08310   1.00
Zn1      0.23890    0.61510    0.08310   1.00
Zn1      0.37620    0.76110    0.08310   1.00
O2       0.39473    0.64057    0.13107   1.00
O2       0.24583    0.60527    0.13107   1.00
O2       0.35943    0.75417    0.13107   1.00
O2       0.42033    0.59507    0.10517   1.00
O2       0.32870    0.54640    0.06590   1.00
O2       0.45920    0.68590    0.06630   1.00
O2       0.17473    0.57967    0.10517   1.00
O2       0.22670    0.54080    0.06630   1.00
O2       0.21770    0.67130    0.06590   1.00
O2       0.40493    0.82527    0.10517   1.00
O2       0.45360    0.78230    0.06590   1.00
O2       0.31410    0.77330    0.06630   1.00
C1       0.41943    0.60647    0.12337   1.00
C1       0.18703    0.58057    0.12337   1.00
C1       0.39353    0.81297    0.12337   1.00
C1       0.26670    0.52270    0.06030   1.00
C1       0.47730    0.74400    0.06030   1.00
C1       0.25600    0.73330    0.06030   1.00
O1       0.33333    0.66667    0.74137   1.00
Zn1      0.33333    0.66667    0.71227   1.00
Zn1      0.29047    0.71823    0.75023   1.00
Zn1      0.28177    0.57223    0.75023   1.00
Zn1      0.42777    0.70953    0.75023   1.00
O2       0.30723    0.72807    0.70227   1.00
O2       0.27193    0.57917    0.70227   1.00
O2       0.42083    0.69277    0.70227   1.00
O2       0.26173    0.75367    0.72817   1.00
O2       0.21307    0.66203    0.76743   1.00
O2       0.35257    0.79253    0.76703   1.00
O2       0.24633    0.50807    0.72817   1.00
O2       0.20747    0.56003    0.76703   1.00
O2       0.33797    0.55103    0.76743   1.00
O2       0.49193    0.73827    0.72817   1.00
O2       0.44897    0.78693    0.76743   1.00
O2       0.43997    0.64743    0.76703   1.00
C1       0.27313    0.75277    0.70997   1.00
C1       0.24723    0.52037    0.70997   1.00
C1       0.47963    0.72687    0.70997   1.00
C1       0.18937    0.60003    0.77303   1.00
C1       0.41067    0.81063    0.77303   1.00
C1       0.39997    0.58933    0.77303   1.00
C4       0.86331    0.68727    0.50064   1.00
C4       0.83630    0.62931    0.48749   1.00
C3       0.93060    0.74356    0.49902   1.00
C3       0.87570    0.61900    0.47265   1.00
C3       0.82150    0.68912    0.51654   1.00
C3       0.76599    0.57852    0.48909   1.00
C2       0.91525    0.80100    0.52844   1.00
C2       0.77828    0.50996    0.46180   1.00
C3       0.95603    0.79870    0.51260   1.00
C3       0.84738    0.56130    0.46002   1.00
C3       0.84768    0.74581    0.52985   1.00
C3       0.73916    0.51936    0.47682   1.00
H1       0.96304    0.74627    0.48788   1.00
H1       0.92623    0.65288    0.47065   1.00
C5       0.75371    0.63449    0.51900   1.00
C5       0.72293    0.58665    0.50303   1.00
H1       1.00527    0.83775    0.51077   1.00
H1       0.87817    0.55683    0.44944   1.00
H1       0.81648    0.74731    0.54084   1.00
H1       0.68989    0.48145    0.47904   1.00
O3       0.71761    0.63096    0.53622   1.00
O3       0.65284    0.54569    0.50207   1.00
Si1      0.71806    0.58659    0.55569   1.00
Si1      0.61007    0.56662    0.48660   1.00
C6       0.67555    0.61269    0.57279   1.00
C6       0.66710    0.49967    0.54937   1.00
C6       0.80091    0.61073    0.56432   1.00
C6       0.65602    0.63937    0.47110   1.00
C6       0.56638    0.49399    0.47124   1.00
C6       0.54935    0.57470    0.50120   1.00
C6       0.70240    0.69129    0.57366   1.00
H2       0.62469    0.59018    0.56612   1.00
C6       0.66396    0.58845    0.59549   1.00
H2       0.63306    0.50119    0.53792   1.00
C6       0.70205    0.46273    0.53908   1.00
C6       0.61937    0.44902    0.56602   1.00
H2       0.82500    0.66626    0.56496   1.00
C6       0.80753    0.58734    0.58616   1.00
C6       0.84852    0.59451    0.55094   1.00
C6       0.70382    0.70911    0.48171   1.00
C6       0.69636    0.63556    0.45232   1.00
H2       0.61529    0.64521    0.46430   1.00
H2       0.60651    0.49416    0.46204   1.00
C6       0.53131    0.42370    0.48251   1.00
C6       0.51247    0.49224    0.45606   1.00
H2       0.50792    0.52229    0.50316   1.00
C6       0.57127    0.60269    0.52317   1.00
C6       0.51611    0.61476    0.49184   1.00
H2       0.70214    0.71172    0.55867   1.00
H2       0.75446    0.71915    0.57955   1.00
H2       0.67021    0.70260    0.58339   1.00
H2       0.61578    0.58259    0.60101   1.00
H2       0.66193    0.53987    0.59758   1.00
H2       0.70377    0.62533    0.60550   1.00
H2       0.66397    0.41479    0.53212   1.00
H2       0.73663    0.49311    0.52698   1.00
H2       0.73032    0.45061    0.55013   1.00
H2       0.58498    0.46511    0.57224   1.00
H2       0.58682    0.39798    0.55977   1.00
H2       0.64899    0.44443    0.57837   1.00
H2       0.77507    0.53226    0.58794   1.00
H2       0.85994    0.60044    0.58966   1.00
H2       0.79416    0.61289    0.59770   1.00
H2       0.84085    0.54376    0.55398   1.00
H2       0.84148    0.59733    0.53479   1.00
H2       0.90203    0.63108    0.55420   1.00
H2       0.75344    0.71496    0.48527   1.00
H2       0.71297    0.75148    0.47175   1.00
H2       0.68183    0.71535    0.49566   1.00
H2       0.71375    0.68074    0.44275   1.00
H2       0.74148    0.63328    0.45671   1.00
H2       0.66490    0.59177    0.44267   1.00
H2       0.51583    0.38193    0.47167   1.00
H2       0.56618    0.42008    0.49323   1.00
H2       0.48597    0.41499    0.49081   1.00
H2       0.53324    0.53878    0.44703   1.00
H2       0.49623    0.44983    0.44540   1.00
H2       0.46705    0.48532    0.46396   1.00
H2       0.61459    0.65453    0.52330   1.00
H2       0.52951    0.60233    0.53156   1.00
H2       0.58586    0.57058    0.53147   1.00
H2       0.47240    0.60729    0.50089   1.00
H2       0.55233    0.66950    0.49125   1.00
H2       0.49724    0.59737    0.47653   1.00
C4       0.31917    0.17728    0.50305   1.00
C4       0.37586    0.20636    0.48940   1.00
C3       0.31714    0.14173    0.52101   1.00
C3       0.43340    0.19749    0.49138   1.00
C3       0.26053    0.18283    0.49846   1.00
C3       0.37571    0.24684    0.47283   1.00
C2       0.20128    0.11699    0.52932   1.00
C2       0.48776    0.26558    0.46092   1.00
C3       0.25970    0.11207    0.53374   1.00
C3       0.48812    0.22680    0.47764   1.00
C3       0.20359    0.15365    0.51169   1.00
C3       0.42999    0.27347    0.45867   1.00
H1       0.35743    0.13656    0.52542   1.00
H1       0.43706    0.16913    0.50278   1.00
C5       0.25925    0.21773    0.48074   1.00
C5       0.32121    0.26005    0.47034   1.00
H1       0.26097    0.08655    0.54645   1.00
H1       0.52865    0.21915    0.47993   1.00
H1       0.16264    0.15967    0.50850   1.00
H1       0.42707    0.29864    0.44617   1.00
O3       0.19898    0.21326    0.47460   1.00
O3       0.32622    0.30947    0.45701   1.00
Si1      0.15036    0.15509    0.45819   1.00
Si1      0.36270    0.38851    0.46467   1.00
C6       0.07999    0.16827    0.45987   1.00
C6       0.19044    0.18037    0.43432   1.00
C6       0.12796    0.07159    0.46568   1.00
C6       0.39681    0.40754    0.48948   1.00
C6       0.42858    0.43157    0.44698   1.00
C6       0.30325    0.41632    0.46140   1.00
C6       0.05633    0.17288    0.48187   1.00
H2       0.10063    0.21936    0.45350   1.00
C6       0.01257    0.12214    0.44775   1.00
H2       0.22149    0.23553    0.43613   1.00
C6       0.24105    0.15564    0.42790   1.00
C6       0.14521    0.16918    0.41516   1.00
H2       0.11201    0.07018    0.48141   1.00
C6       0.06594    0.01110    0.45463   1.00
C6       0.18397    0.04994    0.46602   1.00
C6       0.34790    0.36951    0.50762   1.00
C6       0.46515    0.40854    0.49415   1.00
H2       0.41044    0.46083    0.49117   1.00
H2       0.46464    0.41440    0.45053   1.00
C6       0.40904    0.41242    0.42417   1.00
C6       0.46957    0.51122    0.44805   1.00
H2       0.30709    0.42928    0.44532   1.00
C6       0.22684    0.36180    0.46475   1.00
C6       0.31538    0.48151    0.47318   1.00
H2       0.09816    0.21222    0.49079   1.00
H2       0.03669    0.12442    0.48991   1.00
H2       0.01614    0.18623    0.48158   1.00
H2       -0.01110   0.15199    0.44321   1.00
H2       0.02100    0.10063    0.43406   1.00
H2       -0.02522   0.07973    0.45685   1.00
H2       0.27279    0.18582    0.41518   1.00
H2       0.27594    0.16134    0.44009   1.00
H2       0.21374    0.10237    0.42312   1.00
H2       0.11451    0.19370    0.41689   1.00
H2       0.17654    0.19168    0.40163   1.00
H2       0.11152    0.11493    0.41216   1.00
H2       0.07264    0.01526    0.43819   1.00
H2       0.05881    -0.03850   0.45923   1.00
H2       0.01838    0.00924    0.45845   1.00
H2       0.18916    0.03073    0.45133   1.00
H2       0.23411    0.09095    0.47020   1.00
H2       0.17029    0.00903    0.47705   1.00
H2       0.34241    0.31947    0.51015   1.00
H2       0.36797    0.39848    0.52167   1.00
H2       0.29732    0.36289    0.50537   1.00
H2       0.48440    0.43033    0.50915   1.00
H2       0.45891    0.35769    0.49412   1.00
H2       0.50531    0.43993    0.48339   1.00
H2       0.45496    0.43263    0.41479   1.00
H2       0.38112    0.35718    0.42199   1.00
H2       0.37777    0.43283    0.41833   1.00
H2       0.48717    0.52936    0.46342   1.00
H2       0.51495    0.53145    0.43843   1.00
H2       0.43900    0.53321    0.44278   1.00
H2       0.21675    0.34258    0.48027   1.00
H2       0.19316    0.38203    0.46127   1.00
H2       0.21260    0.31879    0.45470   1.00
H2       0.28157    0.49937    0.46757   1.00
H2       0.30556    0.47135    0.48940   1.00
H2       0.36738    0.52359    0.47129   1.00
C4       0.82395    0.14293    0.50296   1.00
C4       0.79468    0.17023    0.48928   1.00
C3       0.87187    0.18202    0.51824   1.00
C3       0.81498    0.24052    0.48830   1.00
C3       0.80542    0.07292    0.50120   1.00
C3       0.74199    0.12526    0.47578   1.00
C2       0.88336    0.08478    0.52937   1.00
C2       0.73407    0.22169    0.46087   1.00
C3       0.90108    0.15390    0.53101   1.00
C3       0.78509    0.26548    0.47462   1.00
C3       0.83450    0.04519    0.51448   1.00
C3       0.71460    0.15187    0.46152   1.00
H1       0.88679    0.23202    0.52059   1.00
H1       0.85237    0.27570    0.49740   1.00
C5       0.75775    0.03099    0.48624   1.00
C5       0.71730    0.05413    0.47643   1.00
H1       0.93584    0.18478    0.54169   1.00
H1       0.80140    0.31671    0.47471   1.00
H1       0.81930    -0.00557   0.51341   1.00
H1       0.68006    0.11966    0.45110   1.00
O3       0.74863    -0.03283   0.48235   1.00
O3       0.65795    0.00862    0.46651   1.00
Si1      0.79220    -0.04284   0.46428   1.00
Si1      0.58505    -0.01754   0.47791   1.00
C6       0.76733    -0.12855   0.46965   1.00
C6       0.75808    -0.03563   0.44099   1.00
C6       0.88120    0.01075    0.46687   1.00
C6       0.58543    0.01607    0.50215   1.00
C6       0.54015    0.00505    0.46083   1.00
C6       0.54363    -0.10720   0.47898   1.00
C6       0.77151    -0.14551   0.49248   1.00
H2       0.71299    -0.15494   0.46604   1.00
C6       0.79752    -0.16679   0.45736   1.00
H2       0.70605    -0.04992   0.44525   1.00
C6       0.78900    0.03647    0.43099   1.00
C6       0.75087    -0.08481   0.42327   1.00
H2       0.88932    0.00377    0.48283   1.00
C6       0.92812    -0.00853   0.45443   1.00
C6       0.91378    0.08969    0.46348   1.00
C6       0.62815    0.00742    0.51932   1.00
C6       0.59872    0.09071    0.50403   1.00
H2       0.53237    -0.01522   0.50686   1.00
H2       0.56653    0.06058    0.46170   1.00
C6       0.54356    -0.01177   0.43797   1.00
C6       0.46347    -0.02052   0.46563   1.00
H2       0.52102    -0.12349   0.46394   1.00
C6       0.59035    -0.13899   0.48164   1.00
C6       0.48370    -0.14488   0.49446   1.00
H2       0.74227    -0.13041   0.50221   1.00
H2       0.82423    -0.11942   0.49786   1.00
H2       0.75040    -0.20027   0.49472   1.00
H2       0.75924    -0.22078   0.45588   1.00
H2       0.81358    -0.14657   0.44215   1.00
H2       0.84139    -0.16478   0.46493   1.00
H2       0.75489    0.03670    0.41928   1.00
H2       0.79611    0.07551    0.44191   1.00
H2       0.83789    0.05141    0.42378   1.00
H2       0.72075    -0.13812   0.42786   1.00
H2       0.72435    -0.07871   0.41027   1.00
H2       0.80078    -0.07483   0.41801   1.00
H2       0.91510    -0.01424   0.43833   1.00
H2       0.98212    0.02998    0.45587   1.00
H2       0.92430    -0.05550   0.45996   1.00
H2       0.92627    0.10386    0.44758   1.00
H2       0.88137    0.10954    0.46834   1.00
H2       0.96130    0.11719    0.47207   1.00
H2       0.68166    0.04690    0.51862   1.00
H2       0.60924    0.01128    0.53423   1.00
H2       0.62525    -0.04200   0.51869   1.00
H2       0.58783    0.10053    0.51944   1.00
H2       0.65145    0.12867    0.50082   1.00
H2       0.56592    0.09998    0.49400   1.00
H2       0.52440    0.01423    0.42830   1.00
H2       0.59599    0.00571    0.43321   1.00
H2       0.51321    -0.06632   0.43489   1.00
H2       0.45638    -0.00905   0.48122   1.00
H2       0.44403    0.00475    0.45575   1.00
H2       0.43189    -0.07540   0.46319   1.00
H2       0.61819    -0.12420   0.49596   1.00
H2       0.56118    -0.19463   0.48096   1.00
H2       0.62748    -0.12207   0.46945   1.00
H2       0.45575    -0.19977   0.49152   1.00
H2       0.50242    -0.13735   0.51006   1.00
H2       0.44687    -0.12739   0.49336   1.00
C4       0.68723    0.86346    -0.00065   1.00
C4       0.62925    0.83641    0.01248   1.00
C3       0.74241    0.93150    0.00053   1.00
C3       0.61771    0.87628    0.02685   1.00
C3       0.69026    0.82087    -0.01610   1.00
C3       0.57975    0.76555    0.01138   1.00
C2       0.80102    0.91533    -0.02843   1.00
C2       0.50994    0.77820    0.03819   1.00
C3       0.79756    0.95688    -0.01304   1.00
C3       0.56004    0.84789    0.03949   1.00
C3       0.74697    0.84706    -0.02940   1.00
C3       0.52055    0.73857    0.02364   1.00
H1       0.74426    0.96455    0.01133   1.00
H1       0.65064    0.92721    0.02847   1.00
C5       0.63678    0.75232    -0.01810   1.00
C5       0.58918    0.72209    -0.00205   1.00
H1       0.83576    1.00667    -0.01155   1.00
H1       0.55466    0.87907    0.04972   1.00
H1       0.74935    0.81537    -0.04004   1.00
H1       0.48350    0.68875    0.02176   1.00
O3       0.63420    0.71509    -0.03495   1.00
O3       0.54964    0.65197    -0.00055   1.00
Si1      0.58916    0.71248    -0.05463   1.00
Si1      0.57208    0.61185    0.01548   1.00
C6       0.61679    0.66979    -0.07114   1.00
C6       0.50249    0.66039    -0.04820   1.00
C6       0.61128    0.79400    -0.06402   1.00
C6       0.64457    0.66059    0.03084   1.00
C6       0.49971    0.56814    0.03094   1.00
C6       0.58197    0.55093    0.00157   1.00
C6       0.69572    0.69840    -0.07190   1.00
H2       0.59542    0.61966    -0.06404   1.00
C6       0.59251    0.65562    -0.09382   1.00
H2       0.50501    0.62795    -0.03639   1.00
C6       0.46407    0.69471    -0.03847   1.00
C6       0.45247    0.61041    -0.06459   1.00
H2       0.66690    0.81926    -0.06464   1.00
C6       0.58735    0.79786    -0.08604   1.00
C6       0.59352    0.84166    -0.05124   1.00
C6       0.71391    0.70870    0.02008   1.00
C6       0.63961    0.70194    0.04917   1.00
H2       0.65165    0.62126    0.03810   1.00
H2       0.49877    0.60853    0.03971   1.00
C6       0.42942    0.53057    0.01970   1.00
C6       0.49949    0.51637    0.04668   1.00
H2       0.53000    0.50844    -0.00020   1.00
C6       0.60969    0.57131    -0.02048   1.00
C6       0.62354    0.52018    0.01148   1.00
H2       0.71647    0.70010    -0.05682   1.00
H2       0.72249    0.74994    -0.07821   1.00
H2       0.70808    0.66612    -0.08123   1.00
H2       0.58791    0.60748    -0.09886   1.00
H2       0.54331    0.65204    -0.09614   1.00
H2       0.62876    0.69496    -0.10407   1.00
H2       0.41656    0.65647    -0.03135   1.00
H2       0.49392    0.73074    -0.02660   1.00
H2       0.45097    0.72120    -0.04988   1.00
H2       0.46973    0.57642    -0.07035   1.00
H2       0.40164    0.57746    -0.05824   1.00
H2       0.44695    0.63833    -0.07727   1.00
H2       0.53242    0.76416    -0.08774   1.00
H2       0.59914    0.84955    -0.09003   1.00
H2       0.61361    0.78436    -0.09730   1.00
H2       0.54229    0.83239    -0.05444   1.00
H2       0.59661    0.83628    -0.03501   1.00
H2       0.62908    0.89512    -0.05488   1.00
H2       0.71843    0.75742    0.01601   1.00
H2       0.75663    0.71983    0.03014   1.00
H2       0.72083    0.68594    0.00640   1.00
H2       0.68493    0.72123    0.05877   1.00
H2       0.63601    0.74592    0.04429   1.00
H2       0.59612    0.67059    0.05893   1.00
H2       0.38753    0.51512    0.03050   1.00
H2       0.42475    0.56384    0.00859   1.00
H2       0.42186    0.48490    0.01184   1.00
H2       0.54610    0.53898    0.05572   1.00
H2       0.45697    0.50014    0.05729   1.00
H2       0.49374    0.47071    0.03923   1.00
H2       0.66102    0.61544    -0.02081   1.00
H2       0.61049    0.52939    -0.02843   1.00
H2       0.57671    0.58402    -0.02910   1.00
H2       0.61718    0.47608    0.00287   1.00
H2       0.67802    0.55747    0.01196   1.00
H2       0.60647    0.50249    0.02690   1.00
C4       0.17727    0.31917    -0.00305   1.00
C4       0.20636    0.37585    0.01060   1.00
C3       0.14166    0.31711    -0.02100   1.00
C3       0.19742    0.43336    0.00863   1.00
C3       0.18289    0.26056    0.00153   1.00
C3       0.24690    0.37574    0.02716   1.00
C2       0.11699    0.20128    -0.02932   1.00
C2       0.26558    0.48776    0.03908   1.00
C3       0.11200    0.25967    -0.03373   1.00
C3       0.22673    0.48808    0.02237   1.00
C3       0.15371    0.20362    -0.01170   1.00
C3       0.27354    0.43003    0.04132   1.00
H1       0.13643    0.35737    -0.02540   1.00
H1       0.16902    0.43700    -0.00275   1.00
C5       0.21786    0.25931    0.01924   1.00
C5       0.26017    0.32128    0.02963   1.00
H1       0.08644    0.26092    -0.04643   1.00
H1       0.21904    0.52859    0.02010   1.00
H1       0.15978    0.16270    -0.00852   1.00
H1       0.29875    0.42712    0.05381   1.00
O3       0.21346    0.19906    0.02537   1.00
O3       0.30965    0.32633    0.04295   1.00
Si1      0.15536    0.15041    0.04179   1.00
Si1      0.38867    0.36286    0.03527   1.00
C6       0.16859    0.08008    0.04009   1.00
C6       0.18067    0.19050    0.06565   1.00
C6       0.07181    0.12795    0.03432   1.00
C6       0.40760    0.39698    0.01045   1.00
C6       0.43174    0.42875    0.05296   1.00
C6       0.41655    0.30346    0.03852   1.00
C6       0.17317    0.05644    0.01808   1.00
H2       0.21971    0.10076    0.04645   1.00
C6       0.12255    0.01265    0.05222   1.00
H2       0.23583    0.22158    0.06383   1.00
C6       0.15591    0.24106    0.07209   1.00
C6       0.16958    0.14527    0.08481   1.00
H2       0.07037    0.11200    0.01859   1.00
C6       0.01139    0.06590    0.04538   1.00
C6       0.05011    0.18391    0.03400   1.00
C6       0.36955    0.34806    -0.00768   1.00
C6       0.40853    0.46529    0.00580   1.00
H2       0.46090    0.41065    0.00875   1.00
H2       0.41452    0.46478    0.04942   1.00
C6       0.41267    0.40920    0.07577   1.00
C6       0.51138    0.46980    0.05186   1.00
H2       0.42956    0.30731    0.05459   1.00
C6       0.36207    0.22704    0.03517   1.00
C6       0.48173    0.31565    0.02671   1.00
H2       0.21247    0.09829    0.00916   1.00
H2       0.12468    0.03677    0.01006   1.00
H2       0.18657    0.01628    0.01836   1.00
H2       0.15244    -0.01098   0.05674   1.00
H2       0.10105    0.02106    0.06591   1.00
H2       0.08012    -0.02516   0.04312   1.00
H2       0.18611    0.27281    0.08481   1.00
H2       0.16155    0.27594    0.05991   1.00
H2       0.10265    0.21372    0.07689   1.00
H2       0.19413    0.11461    0.08307   1.00
H2       0.19209    0.17660    0.09834   1.00
H2       0.11534    0.11155    0.08782   1.00
H2       0.01559    0.07260    0.06182   1.00
H2       -0.03824   0.05873    0.04080   1.00
H2       0.00956    0.01836    0.04155   1.00
H2       0.03092    0.18908    0.04869   1.00
H2       0.09107    0.23407    0.02982   1.00
H2       0.00915    0.17020    0.02298   1.00
H2       0.31949    0.34253    -0.01019   1.00
H2       0.39847    0.36815    -0.02173   1.00
H2       0.36298    0.29749    -0.00543   1.00
H2       0.43027    0.48456    -0.00921   1.00
H2       0.35766    0.45900    0.00584   1.00
H2       0.43993    0.50546    0.01656   1.00
H2       0.43286    0.45512    0.08514   1.00
H2       0.35742    0.38125    0.07796   1.00
H2       0.43312    0.37796    0.08159   1.00
H2       0.52947    0.48741    0.03649   1.00
H2       0.53161    0.51518    0.06149   1.00
H2       0.53343    0.43926    0.05712   1.00
H2       0.34281    0.21694    0.01966   1.00
H2       0.38235    0.19340    0.03863   1.00
H2       0.31908    0.21277    0.04524   1.00
H2       0.49964    0.28187    0.03232   1.00
H2       0.47153    0.30582    0.01050   1.00
H2       0.52378    0.36767    0.02860   1.00
C4       0.14293    0.82395    -0.00296   1.00
C4       0.17023    0.79468    0.01072   1.00
C3       0.18202    0.87187    -0.01824   1.00
C3       0.24052    0.81498    0.01170   1.00
C3       0.07292    0.80542    -0.00120   1.00
C3       0.12526    0.74199    0.02422   1.00
C2       0.08478    0.88336    -0.02937   1.00
C2       0.22169    0.73407    0.03913   1.00
C3       0.15390    0.90108    -0.03101   1.00
C3       0.26548    0.78509    0.02538   1.00
C3       0.04519    0.83450    -0.01448   1.00
C3       0.15187    0.71460    0.03848   1.00
H1       0.23202    0.88679    -0.02059   1.00
H1       0.27570    0.85237    0.00260   1.00
C5       0.03099    0.75775    0.01376   1.00
C5       0.05413    0.71730    0.02357   1.00
H1       0.18478    0.93584    -0.04169   1.00
H1       0.31671    0.80140    0.02529   1.00
H1       -0.00557   0.81930    -0.01341   1.00
H1       0.11966    0.68006    0.04890   1.00
O3       -0.03283   0.74863    0.01765   1.00
O3       0.00862    0.65795    0.03349   1.00
Si1      -0.04284   0.79220    0.03572   1.00
Si1      -0.01754   0.58505    0.02209   1.00
C6       -0.12855   0.76734    0.03035   1.00
C6       -0.03563   0.75808    0.05901   1.00
C6       0.01075    0.88120    0.03313   1.00
C6       0.01607    0.58543    -0.00215   1.00
C6       0.00505    0.54016    0.03917   1.00
C6       -0.10720   0.54363    0.02102   1.00
C6       -0.14551   0.77151    0.00752   1.00
H2       -0.15494   0.71299    0.03396   1.00
C6       -0.16679   0.79752    0.04264   1.00
H2       -0.04991   0.70605    0.05475   1.00
C6       0.03647    0.78900    0.06901   1.00
C6       -0.08481   0.75088    0.07673   1.00
H2       0.00377    0.88932    0.01717   1.00
C6       -0.00852   0.92813    0.04557   1.00
C6       0.08969    0.91378    0.03652   1.00
C6       0.00742    0.62815    -0.01932   1.00
C6       0.09071    0.59872    -0.00403   1.00
H2       -0.01523   0.53237    -0.00686   1.00
H2       0.06058    0.56653    0.03830   1.00
C6       -0.01177   0.54357    0.06203   1.00
C6       -0.02052   0.46347    0.03437   1.00
H2       -0.12349   0.52102    0.03606   1.00
C6       -0.13899   0.59035    0.01836   1.00
C6       -0.14488   0.48370    0.00554   1.00
H2       -0.13041   0.74227    -0.00221   1.00
H2       -0.11942   0.82423    0.00214   1.00
H2       -0.20027   0.75040    0.00528   1.00
H2       -0.22078   0.75924    0.04412   1.00
H2       -0.14657   0.81358    0.05785   1.00
H2       -0.16478   0.84139    0.03507   1.00
H2       0.03671    0.75489    0.08072   1.00
H2       0.07551    0.79611    0.05809   1.00
H2       0.05141    0.83789    0.07622   1.00
H2       -0.13812   0.72076    0.07214   1.00
H2       -0.07871   0.72435    0.08973   1.00
H2       -0.07482   0.80078    0.08199   1.00
H2       -0.01424   0.91510    0.06167   1.00
H2       0.02998    0.98212    0.04413   1.00
H2       -0.05550   0.92430    0.04004   1.00
H2       0.10386    0.92627    0.05242   1.00
H2       0.10954    0.88137    0.03166   1.00
H2       0.11719    0.96131    0.02793   1.00
H2       0.04690    0.68166    -0.01862   1.00
H2       0.01128    0.60924    -0.03423   1.00
H2       -0.04200   0.62525    -0.01869   1.00
H2       0.10053    0.58783    -0.01944   1.00
H2       0.12867    0.65145    -0.00082   1.00
H2       0.09997    0.56592    0.00600   1.00
H2       0.01423    0.52440    0.07170   1.00
H2       0.00571    0.59599    0.06679   1.00
H2       -0.06632   0.51321    0.06511   1.00
H2       -0.00905   0.45638    0.01878   1.00
H2       0.00475    0.44403    0.04425   1.00
H2       -0.07540   0.43189    0.03681   1.00
H2       -0.12420   0.61819    0.00404   1.00
H2       -0.19463   0.56118    0.01904   1.00
H2       -0.12207   0.62748    0.03055   1.00
H2       -0.19977   0.45575    0.00848   1.00
H2       -0.13735   0.50242    -0.01006   1.00
H2       -0.12739   0.44687    0.00664   1.00
C4       0.13631    0.31736    0.49758   1.00
C4       0.16344    0.37389    0.51127   1.00
C3       0.06727    0.28209    0.49109   1.00
C3       0.12299    0.39680    0.52126   1.00
C3       0.17993    0.29366    0.49009   1.00
C3       0.23495    0.41009    0.51530   1.00
C2       0.08455    0.20136    0.47065   1.00
C2       0.22192    0.48768    0.53911   1.00
C3       0.04197    0.22546    0.47809   1.00
C3       0.15148    0.45252    0.53465   1.00
C3       0.15373    0.23723    0.47669   1.00
C3       0.26220    0.46424    0.52950   1.00
H1       0.03340    0.29667    0.49557   1.00
H1       0.07159    0.37343    0.51921   1.00
C5       0.24951    0.32666    0.49598   1.00
C5       0.27886    0.39177    0.50529   1.00
H1       -0.00854   0.20168    0.47404   1.00
H1       0.11984    0.46718    0.54131   1.00
H1       0.18607    0.22199    0.47100   1.00
H1       0.31274    0.48680    0.53319   1.00
O3       0.28835    0.29706    0.49152   1.00
O3       0.34885    0.43386    0.50581   1.00
Si1      0.29568    0.24772    0.50817   1.00
Si1      0.38476    0.49576    0.48936   1.00
C6       0.33846    0.21829    0.49235   1.00
C6       0.34947    0.30044    0.52768   1.00
C6       0.21645    0.17984    0.51639   1.00
C6       0.33178    0.50782    0.47217   1.00
C6       0.42845    0.56841    0.50472   1.00
C6       0.44575    0.48436    0.47603   1.00
C6       0.30713    0.19364    0.47069   1.00
H2       0.38734    0.26465    0.48984   1.00
C6       0.35659    0.16365    0.50006   1.00
H2       0.37936    0.34899    0.51982   1.00
C6       0.31630    0.31589    0.54624   1.00
C6       0.40280    0.28353    0.53705   1.00
H2       0.18941    0.15984    0.50207   1.00
C6       0.21686    0.11845    0.52723   1.00
C6       0.16891    0.19528    0.53008   1.00
C6       0.28326    0.44671    0.45824   1.00
C6       0.28905    0.54048    0.47983   1.00
H2       0.36884    0.54631    0.46189   1.00
H2       0.38783    0.57405    0.51167   1.00
C6       0.46984    0.56241    0.52284   1.00
C6       0.47677    0.63759    0.49391   1.00
H2       0.48978    0.50543    0.48616   1.00
C6       0.42774    0.40921    0.47224   1.00
C6       0.47252    0.52236    0.45531   1.00
H2       0.30243    0.23314    0.46258   1.00
H2       0.25653    0.14827    0.47155   1.00
H2       0.33941    0.18127    0.46137   1.00
H2       0.40449    0.17285    0.49324   1.00
H2       0.36259    0.16433    0.51642   1.00
H2       0.31802    0.11186    0.49579   1.00
H2       0.35474    0.35957    0.55484   1.00
H2       0.27813    0.32894    0.54160   1.00
H2       0.29264    0.27249    0.55659   1.00
H2       0.43603    0.28149    0.52543   1.00
H2       0.43632    0.32286    0.54782   1.00
H2       0.37759    0.23500    0.54518   1.00
H2       0.25244    0.13586    0.53997   1.00
H2       0.16645    0.08122    0.53303   1.00
H2       0.23047    0.09011    0.51677   1.00
H2       0.18069    0.19637    0.54617   1.00
H2       0.17173    0.24337    0.52660   1.00
H2       0.11566    0.15551    0.52805   1.00
H2       0.23608    0.41149    0.46599   1.00
H2       0.26908    0.46507    0.44479   1.00
H2       0.30711    0.41810    0.45291   1.00
H2       0.26684    0.55336    0.46703   1.00
H2       0.24697    0.50614    0.48956   1.00
H2       0.32020    0.58790    0.48808   1.00
H2       0.48526    0.60499    0.53338   1.00
H2       0.43914    0.51569    0.53152   1.00
H2       0.51587    0.56281    0.51774   1.00
H2       0.45135    0.64713    0.48132   1.00
H2       0.49300    0.68008    0.50453   1.00
H2       0.52265    0.63892    0.48815   1.00
H2       0.38243    0.38148    0.46282   1.00
H2       0.46975    0.40662    0.46498   1.00
H2       0.41803    0.38250    0.48661   1.00
H2       0.51706    0.51974    0.45016   1.00
H2       0.43363    0.49983    0.44349   1.00
H2       0.48837    0.57629    0.45654   1.00
C4       0.68384    0.81903    0.49803   1.00
C4       0.62717    0.78994    0.51167   1.00
C3       0.73270    0.79734    0.49675   1.00
C3       0.61718    0.74068    0.52664   1.00
C3       0.69329    0.87362    0.48508   1.00
C3       0.57724    0.81068    0.51040   1.00
C2       0.79893    0.88276    0.47075   1.00
C2       0.51203    0.73467    0.53901   1.00
C3       0.78888    0.82854    0.48357   1.00
C3       0.56088    0.71331    0.53981   1.00
C3       0.74959    0.90358    0.47163   1.00
C3       0.52246    0.78465    0.52439   1.00
H1       0.72877    0.75807    0.50530   1.00
H1       0.65073    0.72355    0.52851   1.00
C5       0.64628    0.89774    0.48560   1.00
C5       0.58246    0.85770    0.49533   1.00
H1       0.82282    0.81101    0.48341   1.00
H1       0.55597    0.67741    0.55022   1.00
H1       0.75467    0.94141    0.46203   1.00
H1       0.48958    0.80325    0.52413   1.00
O3       0.66151    0.95728    0.47569   1.00
O3       0.52850    0.86812    0.49122   1.00
Si1      0.69857    1.02957    0.48798   1.00
Si1      0.46940    0.81674    0.47550   1.00
C6       0.71428    1.08323    0.46682   1.00
C6       0.63719    1.03034    0.50425   1.00
C6       0.77537    1.04658    0.49987   1.00
C6       0.47582    0.74816    0.46513   1.00
C6       0.39456    0.78463    0.49000   1.00
C6       0.46477    0.86726    0.45594   1.00
C6       0.74645    1.06821    0.44785   1.00
H2       0.66276    1.06987    0.46219   1.00
C6       0.75425    1.16291    0.46916   1.00
H2       0.58965    0.99534    0.49657   1.00
C6       0.63029    1.00164    0.52625   1.00
C6       0.63590    1.09839    0.50684   1.00
H2       0.80143    1.03564    0.48775   1.00
C6       0.82524    1.12192    0.50659   1.00
C6       0.77299    1.00266    0.51865   1.00
C6       0.54204    0.76503    0.45316   1.00
C6       0.45858    0.68469    0.47868   1.00
H2       0.43518    0.72789    0.45381   1.00
H2       0.39956    0.75160    0.50108   1.00
C6       0.38598    0.83815    0.50279   1.00
C6       0.32524    0.73962    0.47883   1.00
H2       0.43393    0.88731    0.46239   1.00
C6       0.53322    0.93151    0.44974   1.00
C6       0.42879    0.83122    0.43565   1.00
H2       0.71571    1.01531    0.44288   1.00
H2       0.79784    1.07785    0.45113   1.00
H2       0.74966    1.10006    0.43496   1.00
H2       0.73483    1.18573    0.45834   1.00
H2       0.74969    1.17967    0.48423   1.00
H2       0.80858    1.18509    0.46595   1.00
H2       0.58216    0.99150    0.53313   1.00
H2       0.63011    0.95350    0.52643   1.00
H2       0.67149    1.03793    0.53599   1.00
H2       0.63051    1.11799    0.49225   1.00
H2       0.59241    1.09077    0.51604   1.00
H2       0.68215    1.13729    0.51431   1.00
H2       0.79933    1.14124    0.51619   1.00
H2       0.86901    1.12672    0.51505   1.00
H2       0.84697    1.15536    0.49357   1.00
H2       0.76660    1.02336    0.53290   1.00
H2       0.73236    0.95004    0.51785   1.00
H2       0.82079    1.00187    0.51977   1.00
H2       0.58298    0.77173    0.46327   1.00
H2       0.53234    0.72338    0.44281   1.00
H2       0.56053    0.81088    0.44398   1.00
H2       0.45552    0.64311    0.46944   1.00
H2       0.49715    0.69604    0.49022   1.00
H2       0.40930    0.66445    0.48618   1.00
H2       0.34459    0.81241    0.51378   1.00
H2       0.43208    0.87116    0.51145   1.00
H2       0.37420    0.87037    0.49328   1.00
H2       0.32580    0.69927    0.46994   1.00
H2       0.28369    0.71468    0.48982   1.00
H2       0.31281    0.77019    0.46878   1.00
H2       0.56989    0.91823    0.44370   1.00
H2       0.52533    0.96209    0.43841   1.00
H2       0.55612    0.96393    0.46289   1.00
H2       0.41996    0.86549    0.42607   1.00
H2       0.45975    0.81554    0.42697   1.00
H2       0.37913    0.78629    0.43838   1.00
C4       0.18099    0.86476    0.49800   1.00
C4       0.21010    0.83721    0.51165   1.00
C3       0.20352    0.93545    0.49645   1.00
C3       0.26028    0.87675    0.52637   1.00
C3       0.12552    0.81948    0.48534   1.00
C3       0.18839    0.76626    0.51065   1.00
C2       0.11722    0.91613    0.47074   1.00
C2       0.26535    0.77740    0.53902   1.00
C3       0.17230    0.96043    0.48329   1.00
C3       0.28763    0.84783    0.53955   1.00
C3       0.09555    0.84582    0.47189   1.00
C3       0.21446    0.73759    0.52465   1.00
H1       0.24342    0.97087    0.50479   1.00
H1       0.27813    0.92763    0.52803   1.00
C5       0.10055    0.74822    0.48614   1.00
C5       0.14039    0.72414    0.49584   1.00
H1       0.19046    1.01201    0.48292   1.00
H1       0.32422    0.87902    0.54977   1.00
H1       0.05706    0.81292    0.46250   1.00
H1       0.19522    0.68601    0.52459   1.00
O3       0.04033    0.70400    0.47652   1.00
O3       0.12888    0.65923    0.49195   1.00
Si1      -0.03135   0.67021    0.48911   1.00
Si1      0.17900    0.64990    0.47611   1.00
C6       -0.08618   0.63175    0.46821   1.00
C6       -0.03227   0.60841    0.50557   1.00
C6       -0.04676   0.73128    0.50086   1.00
C6       0.24769    0.72391    0.46533   1.00
C6       0.21092    0.60709    0.49065   1.00
C6       0.12710    0.59415    0.45685   1.00
C6       -0.07147   0.67813    0.44906   1.00
H2       -0.07371   0.59289    0.46366   1.00
C6       -0.16573   0.59307    0.47088   1.00
H2       0.00191    0.59487    0.49783   1.00
C6       -0.00241   0.63101    0.52742   1.00
C6       -0.10071   0.53971    0.50855   1.00
H2       -0.03593   0.76779    0.48860   1.00
C6       -0.12159   0.70709    0.50786   1.00
C6       -0.00166   0.77338    0.51940   1.00
C6       0.23111    0.77330    0.45326   1.00
C6       0.31201    0.77018    0.47857   1.00
H2       0.26695    0.70253    0.45403   1.00
H2       0.24479    0.64543    0.50153   1.00
C6       0.15749    0.54597    0.50377   1.00
C6       0.25468    0.58137    0.47944   1.00
H2       0.10676    0.54352    0.46352   1.00
C6       0.06312    0.59906    0.45082   1.00
C6       0.16190    0.59268    0.43648   1.00
H2       -0.01888   0.69941    0.44389   1.00
H2       -0.08025   0.72050    0.45224   1.00
H2       -0.10412   0.64913    0.43635   1.00
H2       -0.18953   0.55033    0.46026   1.00
H2       -0.18196   0.57259    0.48606   1.00
H2       -0.18741   0.62565    0.46764   1.00
H2       0.00741    0.59292    0.53439   1.00
H2       0.04609    0.67861    0.52733   1.00
H2       -0.03788   0.63699    0.53724   1.00
H2       -0.12123   0.51412    0.49410   1.00
H2       -0.09325   0.50392    0.51784   1.00
H2       -0.13885   0.54807    0.51611   1.00
H2       -0.14098   0.66229    0.51765   1.00
H2       -0.12535   0.74684    0.51622   1.00
H2       -0.15556   0.69517    0.49497   1.00
H2       -0.02192   0.74710    0.53378   1.00
H2       0.05070    0.78463    0.51843   1.00
H2       -0.00009   0.82238    0.52037   1.00
H2       0.22546    0.80839    0.46328   1.00
H2       0.27243    0.80435    0.44271   1.00
H2       0.18476    0.74598    0.44429   1.00
H2       0.35341    0.80791    0.46911   1.00
H2       0.30171    0.79834    0.49005   1.00
H2       0.33201    0.74098    0.48611   1.00
H2       0.18332    0.53035    0.51474   1.00
H2       0.12534    0.56008    0.51248   1.00
H2       0.12440    0.50167    0.49449   1.00
H2       0.29491    0.62153    0.47032   1.00
H2       0.27970    0.56479    0.49041   1.00
H2       0.22322    0.53802    0.46960   1.00
H2       0.07676    0.64888    0.44459   1.00
H2       0.03165    0.56021    0.43969   1.00
H2       0.03144    0.59061    0.46408   1.00
H2       0.12679    0.54930    0.42712   1.00
H2       0.17774    0.63900    0.42761   1.00
H2       0.20655    0.58736    0.43910   1.00
C4       0.31572    0.14414    1.00169   1.00
C4       0.37360    0.17096    0.98852   1.00
C3       0.30271    0.18479    1.01535   1.00
C3       0.42734    0.23985    0.98900   1.00
C3       0.26840    0.07258    1.00155   1.00
C3       0.37857    0.12701    0.97395   1.00
C2       0.19932    0.08556    1.02856   1.00
C2       0.48972    0.22091    0.96168   1.00
C3       0.24635    0.15631    1.02849   1.00
C3       0.48350    0.26433    0.97583   1.00
C3       0.21117    0.04501    1.01466   1.00
C3       0.43699    0.15197    0.96141   1.00
H1       0.33367    0.23632    1.01609   1.00
H1       0.42748    0.27416    0.99901   1.00
C5       0.27841    0.02907    0.98826   1.00
C5       0.32562    0.05829    0.97207   1.00
H1       0.23982    0.18817    1.03815   1.00
H1       0.52054    0.31477    0.97674   1.00
H1       0.17664    -0.00613   1.01400   1.00
H1       0.44185    0.11882    0.95197   1.00
O3       0.23951    -0.04063   0.99051   1.00
O3       0.32272    0.01902    0.95564   1.00
Si1      0.26783    -0.08110   1.00431   1.00
Si1      0.28653    0.02370    0.93477   1.00
C6       0.19248    -0.16141   1.00403   1.00
C6       0.33357    -0.08297   0.99051   1.00
C6       0.28984    -0.04887   1.02923   1.00
C6       0.25529    0.08128    0.93393   1.00
C6       0.35112    0.04736    0.91657   1.00
C6       0.22075    -0.05944   0.92901   1.00
C6       0.12479    -0.16106   1.00875   1.00
H2       0.18874    -0.17602   0.98809   1.00
C6       0.18731    -0.22317   1.01635   1.00
H2       0.32029    -0.07827   0.97492   1.00
C6       0.40842    -0.02339   0.99361   1.00
C6       0.33838    -0.14955   0.99099   1.00
H2       0.24553    -0.04498   1.03383   1.00
C6       0.29719    -0.09549   1.04541   1.00
C6       0.35413    0.02341    1.03282   1.00
C6       0.20160    0.07349    0.95019   1.00
C6       0.30669    0.15963    0.93194   1.00
H2       0.22790    0.06827    0.91952   1.00
H2       0.38814    0.09996    0.92050   1.00
C6       0.39156    0.00798    0.91731   1.00
C6       0.33154    0.04808    0.89387   1.00
H2       0.24704    -0.08316   0.92175   1.00
C6       0.18276    -0.10631   0.94745   1.00
C6       0.16403    -0.06775   0.91377   1.00
H2       0.11794    -0.12692   0.99856   1.00
H2       0.12436    -0.14471   1.02432   1.00
H2       0.08024    -0.21177   1.00675   1.00
H2       0.15472    -0.27089   1.00830   1.00
H2       0.23647    -0.21970   1.01865   1.00
H2       0.16437    -0.22821   1.03128   1.00
H2       0.44138    -0.02264   0.98136   1.00
H2       0.41181    0.02627    0.99343   1.00
H2       0.42963    -0.02897   1.00787   1.00
H2       0.29077    -0.19378   0.98608   1.00
H2       0.37780    -0.14598   0.98064   1.00
H2       0.35102    -0.15911   1.00618   1.00
H2       0.33274    -0.11171   1.04030   1.00
H2       0.31551    -0.06956   1.06000   1.00
H2       0.24829    -0.14034   1.04871   1.00
H2       0.40078    0.02085    1.03441   1.00
H2       0.36293    0.05941    1.02077   1.00
H2       0.34798    0.04575    1.04681   1.00
H2       0.22578    0.09877    0.96436   1.00
H2       0.17222    0.09676    0.94482   1.00
H2       0.16521    0.02031    0.95351   1.00
H2       0.27956    0.18724    0.92873   1.00
H2       0.33575    0.18128    0.94578   1.00
H2       0.34251    0.17121    0.91948   1.00
H2       0.43744    0.03371    0.90792   1.00
H2       0.40845    0.00619    0.93271   1.00
H2       0.36114    -0.04425   0.91180   1.00
H2       0.30471    0.07644    0.89179   1.00
H2       0.37740    0.07292    0.88443   1.00
H2       0.29954    -0.00355   0.88803   1.00
H2       0.15623    -0.08650   0.95651   1.00
H2       0.14565    -0.15798   0.94262   1.00
H2       0.21908    -0.11040   0.95724   1.00
H2       0.13264    -0.12098   0.90910   1.00
H2       0.13021    -0.05180   0.92056   1.00
H2       0.18574    -0.03812   0.89998   1.00
C4       0.81942    0.68459    1.00169   1.00
C4       0.79043    0.62779    0.98809   1.00
C3       0.80767    0.74045    1.00024   1.00
C3       0.75198    0.62411    0.97064   1.00
C3       0.86353    0.68671    1.01749   1.00
C3       0.79991    0.57108    0.99202   1.00
C2       0.88263    0.79916    1.02916   1.00
C2       0.73480    0.51180    0.96108   1.00
C3       0.83868    0.79635    1.01352   1.00
C3       0.72437    0.56746    0.95760   1.00
C3       0.89331    0.74296    1.03097   1.00
C3       0.77415    0.51580    0.97822   1.00
H1       0.77605    0.74204    0.98954   1.00
H1       0.74325    0.66266    0.96681   1.00
C5       0.87738    0.63249    1.01978   1.00
C5       0.83551    0.57002    1.00957   1.00
H1       0.82868    0.83551    1.01165   1.00
H1       0.69650    0.56735    0.94530   1.00
H1       0.92333    0.74289    1.04257   1.00
H1       0.78509    0.47764    0.98054   1.00
O3       0.92837    0.63982    1.03274   1.00
O3       0.83369    0.51083    1.01578   1.00
Si1      1.00524    0.66715    1.02401   1.00
Si1      0.77012    0.45675    1.02979   1.00
C6       1.04559    0.67660    1.04766   1.00
C6       1.00343    0.60036    1.00978   1.00
C6       1.03922    0.74592    1.01117   1.00
C6       0.70487    0.47525    1.03563   1.00
C6       0.73579    0.38094    1.01568   1.00
C6       0.80501    0.44485    1.05226   1.00
C6       1.02840    0.71458    1.06450   1.00
H2       1.02268    0.62388    1.05286   1.00
C6       1.12472    0.70645    1.04909   1.00
H2       0.96036    0.55555    1.01655   1.00
C6       0.98728    0.59627    0.98658   1.00
C6       1.06531    0.58790    1.01142   1.00
H2       1.02797    0.77629    1.02170   1.00
C6       1.11828    0.78680    1.00774   1.00
C6       1.00867    0.74931    0.99008   1.00
C6       0.72535    0.54414    1.04657   1.00
C6       0.65179    0.46618    1.01891   1.00
H2       0.67438    0.43568    1.04668   1.00
H2       0.71249    0.39094    1.00262   1.00
C6       0.78838    0.36241    1.00661   1.00
C6       0.67839    0.31463    1.02589   1.00
H2       0.82084    0.40824    1.04800   1.00
C6       0.87102    0.50816    1.06033   1.00
C6       0.75685    0.41333    1.07103   1.00
H2       0.97350    0.69046    1.06703   1.00
H2       1.04732    0.76785    1.06041   1.00
H2       1.05116    0.71366    1.07904   1.00
H2       1.13659    0.68264    1.06167   1.00
H2       1.14625    0.69800    1.03542   1.00
H2       1.15219    0.76125    1.05206   1.00
H2       0.97342    0.54597    0.98055   1.00
H2       0.94432    0.60380    0.98346   1.00
H2       1.03143    0.63397    0.97804   1.00
H2       1.07483    0.57985    1.02713   1.00
H2       1.05559    0.54203    1.00314   1.00
H2       1.11154    0.63071    1.00513   1.00
H2       1.13582    0.75540    1.00021   1.00
H2       1.13408    0.83239    0.99847   1.00
H2       1.14552    0.80547    1.02198   1.00
H2       1.03301    0.73830    0.97750   1.00
H2       0.95436    0.71432    0.98880   1.00
H2       1.01660    0.80054    0.98758   1.00
H2       0.74318    0.58628    1.03586   1.00
H2       0.68145    0.54106    1.05448   1.00
H2       0.76501    0.55711    1.05787   1.00
H2       0.60961    0.47013    1.02555   1.00
H2       0.67406    0.50496    1.00716   1.00
H2       0.62900    0.41623    1.01168   1.00
H2       0.76370    0.32158    0.99539   1.00
H2       0.82991    0.40594    0.99879   1.00
H2       0.81058    0.34519    1.01826   1.00
H2       0.63810    0.32224    1.03216   1.00
H2       0.65440    0.27351    1.01473   1.00
H2       0.69873    0.29701    1.03800   1.00
H2       0.86242    0.54992    1.06443   1.00
H2       0.89152    0.49549    1.07357   1.00
H2       0.91026    0.52670    1.04873   1.00
H2       0.78134    0.39894    1.08280   1.00
H2       0.74386    0.44950    1.07775   1.00
H2       0.70959    0.36722    1.06702   1.00
C4       0.86475    0.18099    1.00200   1.00
C4       0.83721    0.21011    0.98835   1.00
C3       0.93546    0.20369    1.00361   1.00
C3       0.87680    0.26048    0.97369   1.00
C3       0.81945    0.12535    1.01460   1.00
C3       0.76620    0.18820    0.98930   1.00
C2       0.91612    0.11722    1.02926   1.00
C2       0.77741    0.26535    0.96098   1.00
C3       0.96045    0.17247    1.01677   1.00
C3       0.84789    0.28783    0.96050   1.00
C3       0.84578    0.09538    1.02806   1.00
C3       0.73755    0.21428    0.97529   1.00
H1       0.97090    0.24373    0.99532   1.00
H1       0.92772    0.27847    0.97207   1.00
C5       0.74816    0.10020    1.01375   1.00
C5       0.72401    0.14000    1.00406   1.00
H1       1.01205    0.19076    1.01718   1.00
H1       0.87911    0.32455    0.95032   1.00
H1       0.81286    0.05675    1.03741   1.00
H1       0.68594    0.19490    0.97531   1.00
O3       0.70396    0.03984    1.02331   1.00
O3       0.65900    0.12827    1.00790   1.00
Si1      0.67047    -0.03171   1.01066   1.00
Si1      0.64935    0.17813    1.02376   1.00
C6       0.63191    -0.08677   1.03150   1.00
C6       0.60875    -0.03265   0.99415   1.00
C6       0.73180    -0.04679   0.99893   1.00
C6       0.72315    0.24683    1.03462   1.00
C6       0.60651    0.21000    1.00921   1.00
C6       0.59348    0.12595    1.04295   1.00
C6       0.67813    -0.07213   1.05069   1.00
H2       0.59290    -0.07449   1.03603   1.00
C6       0.59344    -0.16629   1.02876   1.00
H2       0.59500    0.00135    1.00191   1.00
C6       0.63151    -0.00255   0.97234   1.00
C6       0.54018    -0.10118   0.99110   1.00
H2       0.76821    -0.03598   1.01122   1.00
C6       0.70788    -0.12150   0.99188   1.00
C6       0.77402    -0.00145   0.98045   1.00
C6       0.77254    0.23032    1.04672   1.00
C6       0.76942    0.31132    1.02145   1.00
H2       0.70156    0.26589    1.04593   1.00
H2       0.64492    0.24404    0.99838   1.00
C6       0.54560    0.15659    0.99603   1.00
C6       0.58050    0.25351    1.02043   1.00
H2       0.54289    0.10554    1.03625   1.00
C6       0.59852    0.06202    1.04895   1.00
C6       0.59169    0.16049    1.06335   1.00
H2       0.69922    -0.01961   1.05591   1.00
H2       0.72062    -0.08074   1.04753   1.00
H2       0.64905    -0.10494   1.06337   1.00
H2       0.55061    -0.19029   1.03934   1.00
H2       0.57313    -0.18242   1.01356   1.00
H2       0.62610    -0.18787   1.03201   1.00
H2       0.59340    0.00720    0.96535   1.00
H2       0.67903    0.04601    0.97248   1.00
H2       0.63770    -0.03786   0.96250   1.00
H2       0.51447    -0.12188   1.00553   1.00
H2       0.50441    -0.09374   0.98179   1.00
H2       0.54875    -0.13915   0.98352   1.00
H2       0.66317    -0.14091   0.98205   1.00
H2       0.74779    -0.12506   0.98354   1.00
H2       0.69592    -0.15559   1.00475   1.00
H2       0.74790    -0.02162   0.96604   1.00
H2       0.78511    0.05086    0.98146   1.00
H2       0.82309    0.00028    0.97951   1.00
H2       0.80780    0.22488    1.03671   1.00
H2       0.80340    0.27157    1.05731   1.00
H2       0.74523    0.18387    1.05565   1.00
H2       0.80698    0.35268    1.03096   1.00
H2       0.79778    0.30124    1.00998   1.00
H2       0.74019    0.33128    1.01390   1.00
H2       0.52999    0.18244    0.98506   1.00
H2       0.55992    0.12462    0.98730   1.00
H2       0.50124    0.12333    1.00526   1.00
H2       0.62051    0.29371    1.02960   1.00
H2       0.56393    0.27854    1.00946   1.00
H2       0.53708    0.22187    1.03023   1.00
H2       0.64832    0.07573    1.05522   1.00
H2       0.55960    0.03038    1.06004   1.00
H2       0.59030    0.03049    1.03567   1.00
H2       0.54826    0.12520    1.07266   1.00
H2       0.63794    0.17636    1.07225   1.00
H2       0.58625    0.20507    1.06075   1.00
C4       0.52453    1.01418    0.83636   1.00
C4       0.49700    0.95753    0.82271   1.00
C3       0.48951    1.01756    0.85379   1.00
C3       0.42944    0.90152    0.82408   1.00
C3       0.59030    1.07141    0.83234   1.00
C3       0.53889    0.95608    0.80676   1.00
C2       0.58227    1.13202    0.86267   1.00
C2       0.44460    0.84560    0.79423   1.00
C3       0.51737    1.07498    0.86653   1.00
C3       0.40413    0.84678    0.81036   1.00
C3       0.61806    1.12832    0.84558   1.00
C3       0.51146    0.90188    0.79258   1.00
H1       0.44283    0.97830    0.85779   1.00
H1       0.39649    0.89904    0.83501   1.00
C5       0.62804    1.07129    0.81517   1.00
C5       0.60766    1.00894    0.80492   1.00
H1       0.48947    1.07473    0.87883   1.00
H1       0.35506    0.80738    0.81219   1.00
H1       0.66608    1.16819    0.84282   1.00
H1       0.54068    0.90376    0.78050   1.00
O3       0.68586    1.13052    0.80946   1.00
O3       0.65263    1.00208    0.79231   1.00
Si1      0.68059    1.18049    0.79259   1.00
Si1      0.69182    0.96318    0.80085   1.00
C6       0.76496    1.24888    0.79504   1.00
C6       0.66756    1.14026    0.76880   1.00
C6       0.62074    1.20575    0.79900   1.00
C6       0.67248    0.92897    0.82565   1.00
C6       0.66911    0.89697    0.78329   1.00
C6       0.78002    1.02031    0.79849   1.00
C6       0.79075    1.27183    0.81728   1.00
H2       0.79475    1.22664    0.78928   1.00
C6       0.79008    1.31678    0.78278   1.00
H2       0.68967    1.10765    0.77119   1.00
C6       0.59263    1.09169    0.76160   1.00
C6       0.70516    1.18504    0.74986   1.00
H2       0.63359    1.22140    0.81482   1.00
C6       0.62617    1.26892    0.78755   1.00
C6       0.54246    1.15175    0.79855   1.00
C6       0.68278    0.97837    0.84360   1.00
C6       0.60323    0.86199    0.82977   1.00
H2       0.71053    0.91350    0.82803   1.00
H2       0.61511    0.86233    0.78629   1.00
C6       0.67321    0.91691    0.76038   1.00
C6       0.70514    0.85364    0.78523   1.00
H2       0.79086    1.01606    0.78259   1.00
C6       0.80409    1.09732    0.80164   1.00
C6       0.82993    1.00581    0.81115   1.00
H2       0.78548    1.22928    0.82645   1.00
H2       0.76230    1.29299    0.82474   1.00
H2       0.84480    1.31067    0.81752   1.00
H2       0.84398    1.33878    0.77889   1.00
H2       0.76220    1.30940    0.76872   1.00
H2       0.78591    1.35547    0.79155   1.00
H2       0.59146    1.05942    0.74909   1.00
H2       0.56109    1.05727    0.77358   1.00
H2       0.56894    1.12057    0.75624   1.00
H2       0.76021    1.21413    0.75220   1.00
H2       0.69700    1.15348    0.73642   1.00
H2       0.68679    1.22021    0.74632   1.00
H2       0.62553    1.26222    0.77113   1.00
H2       0.58431    1.27788    0.79146   1.00
H2       0.67232    1.31558    0.79173   1.00
H2       0.52026    1.14746    0.78355   1.00
H2       0.53096    1.10100    0.80294   1.00
H2       0.51494    1.16676    0.80907   1.00
H2       0.63908    0.98573    0.84541   1.00
H2       0.68885    0.95752    0.85790   1.00
H2       0.72812    1.02818    0.84166   1.00
H2       0.60301    0.84224    0.84493   1.00
H2       0.55984    0.87013    0.82903   1.00
H2       0.59442    0.82142    0.81917   1.00
H2       0.64741    0.87115    0.75094   1.00
H2       0.64788    0.94646    0.75759   1.00
H2       0.72579    0.94674    0.75511   1.00
H2       0.70297    0.83565    0.80071   1.00
H2       0.67994    0.80840    0.77555   1.00
H2       0.75849    0.88272    0.78054   1.00
H2       0.79357    1.10794    0.81693   1.00
H2       0.85864    1.12950    0.79874   1.00
H2       0.77780    1.11300    0.79106   1.00
H2       0.88257    1.03822    0.80608   1.00
H2       0.82791    1.01581    0.82727   1.00
H2       0.81837    0.95320    0.80947   1.00
C4       -0.01435   0.50938    0.83629   1.00
C4       0.04222    0.53865    0.82261   1.00
C3       -0.02317   0.46148    0.85158   1.00
C3       0.09222    0.51837    0.82163   1.00
C3       -0.06585   0.52789    0.83452   1.00
C3       0.04993    0.59132    0.80910   1.00
C2       -0.13191   0.44997    0.86270   1.00
C2       0.15429    0.59926    0.79420   1.00
C3       -0.08049   0.43227    0.86435   1.00
C3       0.14708    0.54826    0.80796   1.00
C3       -0.12265   0.49881    0.84780   1.00
C3       0.10392    0.61871    0.79485   1.00
H1       0.01192    0.44658    0.85393   1.00
H1       0.09003    0.48099    0.83074   1.00
C5       -0.06012   0.57554    0.81956   1.00
C5       0.00346    0.61599    0.80975   1.00
H1       -0.08437   0.39753    0.87503   1.00
H1       0.18201    0.53196    0.80805   1.00
H1       -0.15822   0.51400    0.84673   1.00
H1       0.10624    0.65323    0.78442   1.00
O3       -0.11483   0.58464    0.81566   1.00
O3       0.01730    0.67533    0.79982   1.00
Si1      -0.16840   0.54104    0.79760   1.00
Si1      0.06402    0.74824    0.81121   1.00
C6       -0.22927   0.56588    0.80296   1.00
C6       -0.12708   0.57514    0.77431   1.00
C6       -0.20379   0.45204    0.80019   1.00
C6       0.09724    0.74789    0.83545   1.00
C6       0.13149    0.79313    0.79414   1.00
C6       0.01575    0.78965    0.81227   1.00
C6       -0.25041   0.56172    0.82579   1.00
H2       -0.20133   0.62022    0.79934   1.00
C6       -0.29769   0.53567    0.79067   1.00
H2       -0.08934   0.62718    0.77856   1.00
C6       -0.08588   0.54423    0.76431   1.00
C6       -0.16906   0.58231    0.75658   1.00
H2       -0.21889   0.44393    0.81615   1.00
C6       -0.26999   0.40509    0.78776   1.00
C6       -0.15741   0.41948    0.79681   1.00
C6       0.04588    0.70519    0.85263   1.00
C6       0.15862    0.73463    0.83735   1.00
H2       0.11901    0.80097    0.84017   1.00
H2       0.16066    0.76677    0.79501   1.00
C6       0.11127    0.78969    0.77127   1.00
C6       0.18259    0.86983    0.79893   1.00
H2       0.02207    0.81223    0.79724   1.00
C6       -0.06276   0.74290    0.81494   1.00
C6       0.03799    0.84958    0.82775   1.00
H2       -0.20607   0.59099    0.83551   1.00
H2       -0.27702   0.50901    0.83118   1.00
H2       -0.28407   0.58282    0.82802   1.00
H2       -0.31341   0.57393    0.78918   1.00
H2       -0.29353   0.51959    0.77546   1.00
H2       -0.33955   0.49179    0.79824   1.00
H2       -0.05154   0.57833    0.75260   1.00
H2       -0.05394   0.53714    0.77524   1.00
H2       -0.11983   0.49532    0.75711   1.00
H2       -0.19227   0.61242    0.76116   1.00
H2       -0.13644   0.60883    0.74358   1.00
H2       -0.20897   0.53239    0.75132   1.00
H2       -0.26268   0.41810    0.77166   1.00
H2       -0.28546   0.35110    0.78920   1.00
H2       -0.31315   0.40890    0.79329   1.00
H2       -0.15573   0.40697    0.78091   1.00
H2       -0.10516   0.45190    0.80167   1.00
H2       -0.17743   0.37196    0.80541   1.00
H2       0.03187    0.65168    0.85193   1.00
H2       0.06865    0.72411    0.86754   1.00
H2       -0.00064   0.70807    0.85199   1.00
H2       0.17933    0.74555    0.85275   1.00
H2       0.14386    0.68191    0.83414   1.00
H2       0.20068    0.76743    0.82731   1.00
H2       0.15643    0.80886    0.76160   1.00
H2       0.07633    0.73726    0.76652   1.00
H2       0.08706    0.82003    0.76819   1.00
H2       0.20115    0.87694    0.81451   1.00
H2       0.22730    0.88927    0.78905   1.00
H2       0.15928    0.90139    0.79648   1.00
H2       -0.07580   0.71508    0.82926   1.00
H2       -0.08924   0.77206    0.81425   1.00
H2       -0.08295   0.70576    0.80275   1.00
H2       0.01104    0.87752    0.82481   1.00
H2       0.02680    0.83088    0.84335   1.00
H2       0.09231    0.88643    0.82665   1.00
C4       0.49059    0.47624    0.83629   1.00
C4       0.46133    0.50355    0.82261   1.00
C3       0.53828    0.51525    0.85164   1.00
C3       0.48142    0.57379    0.82170   1.00
C3       0.47231    0.40631    0.83447   1.00
C3       0.40887    0.45863    0.80904   1.00
C2       0.55003    0.41810    0.86270   1.00
C2       0.40074    0.55503    0.79420   1.00
C3       0.56750    0.48714    0.86441   1.00
C3       0.45154    0.59876    0.80802   1.00
C3       0.50139    0.37858    0.84775   1.00
C3       0.38149    0.48526    0.79479   1.00
H1       0.55301    0.56518    0.85403   1.00
H1       0.51864    0.60894    0.83085   1.00
C5       0.42489    0.36447    0.81945   1.00
C5       0.38439    0.38753    0.80963   1.00
H1       0.60208    0.51796    0.87513   1.00
H1       0.46769    0.64996    0.80816   1.00
H1       0.48637    0.32788    0.84663   1.00
H1       0.34713    0.45311    0.78432   1.00
O3       0.41603    0.30078    0.81550   1.00
O3       0.32521    0.34201    0.79963   1.00
Si1      0.45993    0.29117    0.79746   1.00
Si1      0.25215    0.31549    0.81096   1.00
C6       0.43528    0.20546    0.80274   1.00
C6       0.42599    0.29852    0.77415   1.00
C6       0.54886    0.34496    0.80014   1.00
C6       0.25212    0.34874    0.83522   1.00
C6       0.20728    0.33807    0.79388   1.00
C6       0.21096    0.22582    0.81194   1.00
C6       0.43926    0.18827    0.82557   1.00
H2       0.38097    0.17896    0.79908   1.00
C6       0.46580    0.16756    0.79045   1.00
H2       0.37387    0.28402    0.77836   1.00
C6       0.45682    0.37072    0.76422   1.00
C6       0.41917    0.24962    0.75639   1.00
H2       0.55684    0.33783    0.81610   1.00
C6       0.59610    0.32605    0.78773   1.00
C6       0.58125    0.42391    0.79683   1.00
C6       0.29474    0.34005    0.85242   1.00
C6       0.26513    0.42327    0.83718   1.00
H2       0.19901    0.31725    0.83988   1.00
H2       0.23349    0.39359    0.79480   1.00
C6       0.21103    0.32158    0.77100   1.00
C6       0.13050    0.31221    0.79860   1.00
H2       0.18855    0.20967    0.79687   1.00
C6       0.25786    0.19423    0.81461   1.00
C6       0.15089    0.18781    0.82735   1.00
H2       0.40979    0.20312    0.83528   1.00
H2       0.49191    0.21445    0.83100   1.00
H2       0.41829    0.13351    0.82775   1.00
H2       0.42767    0.11355    0.78890   1.00
H2       0.48200    0.18798    0.77526   1.00
H2       0.50966    0.16963    0.79805   1.00
H2       0.42278    0.37097    0.75249   1.00
H2       0.46367    0.40959    0.77518   1.00
H2       0.50583    0.38590    0.75706   1.00
H2       0.38914    0.19624    0.76092   1.00
H2       0.39272    0.25577    0.74337   1.00
H2       0.46919    0.25984    0.75117   1.00
H2       0.58325    0.32049    0.77161   1.00
H2       0.65003    0.36466    0.78922   1.00
H2       0.59238    0.27908    0.79322   1.00
H2       0.59390    0.43830    0.78095   1.00
H2       0.54866    0.44354    0.80168   1.00
H2       0.62866    0.45143    0.80548   1.00
H2       0.34822    0.37967    0.85178   1.00
H2       0.27561    0.34366    0.86733   1.00
H2       0.29203    0.29073    0.85175   1.00
H2       0.25400    0.43284    0.85258   1.00
H2       0.31785    0.46139    0.83402   1.00
H2       0.23235    0.43251    0.82713   1.00
H2       0.19184    0.34757    0.76134   1.00
H2       0.26354    0.33928    0.76629   1.00
H2       0.18086    0.26706    0.76786   1.00
H2       0.12317    0.32344    0.81419   1.00
H2       0.11104    0.33748    0.78872   1.00
H2       0.09909    0.25735    0.79610   1.00
H2       0.28553    0.20893    0.82895   1.00
H2       0.22885    0.13860    0.81387   1.00
H2       0.29514    0.21141    0.80245   1.00
H2       0.12312    0.13295    0.82435   1.00
H2       0.16943    0.19520    0.84297   1.00
H2       0.11394    0.20514    0.82624   1.00
C4       0.35236    0.19858    0.33206   1.00
C4       0.29432    0.17068    0.34518   1.00
C3       0.38140    0.26445    0.32322   1.00
C3       0.25584    0.20321    0.34929   1.00
C3       0.38287    0.15841    0.32715   1.00
C3       0.27312    0.10678    0.35488   1.00
C2       0.46768    0.24999    0.30488   1.00
C2       0.17662    0.11020    0.37154   1.00
C3       0.43722    0.28934    0.30992   1.00
C3       0.19900    0.17415    0.36226   1.00
C3       0.43995    0.18494    0.31399   1.00
C3       0.21398    0.07701    0.36720   1.00
H1       0.36300    0.29637    0.32625   1.00
H1       0.26772    0.24877    0.34289   1.00
C5       0.35634    0.09212    0.33548   1.00
C5       0.31059    0.07261    0.35210   1.00
H1       0.45574    0.33717    0.30387   1.00
H1       0.17348    0.20027    0.36481   1.00
H1       0.46247    0.15630    0.31105   1.00
H1       0.19695    0.02928    0.37298   1.00
O3       0.37832    0.04941    0.32814   1.00
O3       0.29941    0.01833    0.36431   1.00
Si1      0.33578    -0.00463   0.31007   1.00
Si1      0.33864    0.03385    0.38609   1.00
C6       0.39487    -0.03233   0.30546   1.00
C6       0.25989    -0.07020   0.32081   1.00
C6       0.32448    0.03435    0.28836   1.00
C6       0.39148    0.11981    0.39342   1.00
C6       0.27145    -0.00707   0.40350   1.00
C6       0.38544    -0.00916   0.38614   1.00
C6       0.47129    0.02531    0.30337   1.00
H2       0.39242    -0.05890   0.31954   1.00
C6       0.38294    -0.08430   0.28800   1.00
H2       0.27419    -0.06813   0.33671   1.00
C6       0.19524    -0.06205   0.32078   1.00
C6       0.23375    -0.14542   0.31392   1.00
H2       0.37585    0.07733    0.28589   1.00
C6       0.30378    -0.00780   0.26817   1.00
C6       0.27567    0.06492    0.28943   1.00
C6       0.45120    0.16763    0.37897   1.00
C6       0.35826    0.16226    0.40087   1.00
H2       0.41617    0.11488    0.40702   1.00
H2       0.24702    0.02400    0.40336   1.00
C6       0.21400    -0.08072   0.39765   1.00
C6       0.29063    -0.01048   0.42609   1.00
H2       0.34768    -0.06167   0.38996   1.00
C6       0.41565    -0.01399   0.36536   1.00
C6       0.44429    0.01331    0.40202   1.00
H2       0.48831    0.05876    0.31661   1.00
H2       0.47891    0.05672    0.28995   1.00
H2       0.50499    0.00387    0.30210   1.00
H2       0.40340    -0.11712   0.29240   1.00
H2       0.32935    -0.11721   0.28437   1.00
H2       0.40894    -0.05884   0.27399   1.00
H2       0.15702    -0.09770   0.33145   1.00
H2       0.20696    -0.01128   0.32550   1.00
H2       0.17162    -0.07245   0.30580   1.00
H2       0.27251    -0.15997   0.31617   1.00
H2       0.18943    -0.18148   0.32280   1.00
H2       0.21859    -0.15258   0.29798   1.00
H2       0.25828    -0.05766   0.27030   1.00
H2       0.29330    0.01836    0.25594   1.00
H2       0.34485    -0.01493   0.26252   1.00
H2       0.22291    0.02687    0.28600   1.00
H2       0.27554    0.08648    0.30408   1.00
H2       0.29135    0.10592    0.27830   1.00
H2       0.43390    0.18811    0.36687   1.00
H2       0.49063    0.21119    0.38736   1.00
H2       0.47568    0.14168    0.37207   1.00
H2       0.39682    0.21062    0.40751   1.00
H2       0.33433    0.17472    0.38858   1.00
H2       0.32021    0.13587    0.41267   1.00
H2       0.16953    -0.09709   0.40747   1.00
H2       0.19656    -0.08264   0.38208   1.00
H2       0.23097    -0.11792   0.39911   1.00
H2       0.32924    0.03942    0.43171   1.00
H2       0.24589    -0.02784   0.43586   1.00
H2       0.30950    -0.04609   0.42797   1.00
H2       0.45269    0.03605    0.35946   1.00
H2       0.44035    -0.04476   0.36646   1.00
H2       0.37502    -0.03851   0.35428   1.00
H2       0.46214    -0.02349   0.40262   1.00
H2       0.48798    0.06296    0.39819   1.00
H2       0.42750    0.01634    0.41728   1.00
C4       0.84206    0.64597    0.33273   1.00
C4       0.87310    0.70387    0.34590   1.00
C3       0.84633    0.58614    0.33576   1.00
C3       0.91658    0.71022    0.36230   1.00
C3       0.80544    0.64785    0.31535   1.00
C3       0.86023    0.75877    0.34269   1.00
C2       0.78074    0.53241    0.30486   1.00
C2       0.93517    0.82329    0.37156   1.00
C3       0.81687    0.53106    0.32215   1.00
C3       0.94627    0.76799    0.37489   1.00
C3       0.77499    0.59123    0.30202   1.00
C3       0.89297    0.81777    0.35501   1.00
H1       0.87078    0.58072    0.34796   1.00
H1       0.92831    0.67327    0.36549   1.00
C5       0.79921    0.70613    0.31146   1.00
C5       0.81531    0.75486    0.32710   1.00
H1       0.82205    0.48933    0.32504   1.00
H1       0.97680    0.76952    0.38663   1.00
H1       0.74727    0.59254    0.28993   1.00
H1       0.88669    0.85841    0.35171   1.00
O3       0.77398    0.71252    0.29307   1.00
O3       0.79165    0.80049    0.32625   1.00
Si1      0.82642    0.75406    0.27457   1.00
Si1      0.72494    0.78517    0.33968   1.00
C6       0.76422    0.73298    0.25552   1.00
C6       0.86709    0.84156    0.28061   1.00
C6       0.88191    0.72295    0.26856   1.00
C6       0.68783    0.71214    0.35541   1.00
C6       0.75489    0.85864    0.35472   1.00
C6       0.66362    0.78299    0.32279   1.00
C6       0.70788    0.65583    0.25417   1.00
H2       0.73777    0.75940    0.26071   1.00
C6       0.78530    0.75650    0.23298   1.00
H2       0.83004    0.84369    0.29072   1.00
C6       0.93548    0.87347    0.29281   1.00
C6       0.87983    0.89376    0.26325   1.00
H2       0.84694    0.66796    0.26777   1.00
C6       0.91900    0.74394    0.24752   1.00
C6       0.93971    0.73407    0.28391   1.00
C6       0.66335    0.64113    0.34531   1.00
C6       0.72425    0.71234    0.37564   1.00
H2       0.64133    0.71071    0.36058   1.00
H2       0.78982    0.85484    0.36533   1.00
C6       0.79844    0.92839    0.34354   1.00
C6       0.70140    0.86589    0.36787   1.00
H2       0.67976    0.83663    0.32031   1.00
C6       0.66163    0.75378    0.30123   1.00
C6       0.58776    0.74845    0.33013   1.00
H2       0.68189    0.63686    0.26867   1.00
H2       0.72965    0.62424    0.24969   1.00
H2       0.66864    0.64797    0.24310   1.00
H2       0.74764    0.76657    0.22583   1.00
H2       0.83464    0.80271    0.23173   1.00
H2       0.78736    0.71744    0.22379   1.00
H2       0.94748    0.92278    0.29923   1.00
H2       0.93282    0.84163    0.30554   1.00
H2       0.97803    0.88195    0.28308   1.00
H2       0.83250    0.88167    0.25551   1.00
H2       0.90049    0.94546    0.26923   1.00
H2       0.91620    0.89495    0.25214   1.00
H2       0.94634    0.79925    0.24560   1.00
H2       0.95580    0.72637    0.24572   1.00
H2       0.88320    0.72071    0.23509   1.00
H2       0.98628    0.78286    0.28156   1.00
H2       0.92535    0.73249    0.29966   1.00
H2       0.95301    0.69416    0.28195   1.00
H2       0.70508    0.63071    0.34347   1.00
H2       0.62486    0.60032    0.35476   1.00
H2       0.64026    0.63698    0.33052   1.00
H2       0.69072    0.66807    0.38494   1.00
H2       0.77046    0.71004    0.37297   1.00
H2       0.73737    0.75714    0.38490   1.00
H2       0.82416    0.96977    0.35454   1.00
H2       0.83826    0.92819    0.33422   1.00
H2       0.76724    0.94081    0.33379   1.00
H2       0.66980    0.81999    0.37674   1.00
H2       0.72713    0.90794    0.37866   1.00
H2       0.66814    0.87663    0.35848   1.00
H2       0.64847    0.70044    0.30171   1.00
H2       0.62513    0.75794    0.29136   1.00
H2       0.71131    0.78260    0.29410   1.00
H2       0.55704    0.75952    0.31968   1.00
H2       0.56467    0.69306    0.33102   1.00
H2       0.58355    0.76715    0.34499   1.00
C4       0.80369    0.15768    0.33272   1.00
C4       0.83061    0.12667    0.34588   1.00
C3       0.73822    0.15070    0.33521   1.00
C3       0.79247    0.08067    0.36168   1.00
C3       0.84362    0.19714    0.31590   1.00
C3       0.89951    0.14224    0.34328   1.00
C2       0.75158    0.21919    0.30487   1.00
C2       0.88823    0.06490    0.37155   1.00
C3       0.71268    0.18026    0.32162   1.00
C3       0.82065    0.05111    0.37429   1.00
C3       0.81745    0.22761    0.30258   1.00
C3       0.92599    0.10965    0.35558   1.00
H1       0.70725    0.12413    0.34701   1.00
H1       0.74297    0.06695    0.36442   1.00
C5       0.90953    0.20616    0.31255   1.00
C5       0.94145    0.18971    0.32833   1.00
H1       0.66476    0.17306    0.32410   1.00
H1       0.79085    0.01866    0.38558   1.00
H1       0.84741    0.25734    0.29091   1.00
H1       0.97393    0.11798    0.35269   1.00
O3       0.94303    0.23432    0.29460   1.00
O3       1.01118    0.21561    0.32818   1.00
Si1      0.93625    0.18478    0.27567   1.00
Si1      1.05926    0.28129    0.34244   1.00
C6       0.97805    0.24959    0.25738   1.00
C6       0.98474    0.14595    0.28181   1.00
C6       0.85096    0.12785    0.26863   1.00
C6       1.01932    0.31439    0.35812   1.00
C6       1.10287    0.25176    0.35760   1.00
C6       1.11919    0.34568    0.32643   1.00
C6       0.95486    0.30418    0.25624   1.00
H2       1.03022    0.27688    0.26316   1.00
C6       0.98414    0.23178    0.23474   1.00
H2       1.02196    0.18251    0.29246   1.00
C6       0.94875    0.07607    0.29325   1.00
C6       1.02756    0.13707    0.26469   1.00
H2       0.82933    0.16146    0.26792   1.00
C6       0.83860    0.09346    0.24724   1.00
C6       0.80379    0.06758    0.28322   1.00
C6       0.97224    0.33784    0.34783   1.00
C6       0.98135    0.27487    0.37780   1.00
H2       1.06276    0.36102    0.36395   1.00
H2       1.06349    0.21478    0.36767   1.00
C6       1.13261    0.21143    0.34635   1.00
C6       1.16102    0.30487    0.37158   1.00
H2       1.15830    0.33157    0.32414   1.00
C6       1.09406    0.34922    0.30469   1.00
C6       1.15741    0.42068    0.33460   1.00
H2       0.95920    0.32815    0.27096   1.00
H2       0.90192    0.28138    0.25121   1.00
H2       0.98665    0.34517    0.24569   1.00
H2       1.03216    0.27136    0.22822   1.00
H2       0.98302    0.18347    0.23313   1.00
H2       0.94349    0.22933    0.22522   1.00
H2       0.98640    0.06494    0.29988   1.00
H2       0.91737    0.07603    0.30576   1.00
H2       0.91691    0.03427    0.28299   1.00
H2       1.06257    0.18573    0.25755   1.00
H2       1.05922    0.11727    0.27077   1.00
H2       0.99452    0.10146    0.25307   1.00
H2       0.86838    0.06797    0.24535   1.00
H2       0.78490    0.05557    0.24476   1.00
H2       0.85156    0.13054    0.23515   1.00
H2       0.80813    0.02232    0.28057   1.00
H2       0.81429    0.08022    0.29914   1.00
H2       0.75036    0.05278    0.28075   1.00
H2       0.92098    0.29520    0.34531   1.00
H2       0.96722    0.37432    0.35751   1.00
H2       0.99246    0.36298    0.33335   1.00
H2       0.96796    0.30618    0.38724   1.00
H2       0.93408    0.22808    0.37445   1.00
H2       1.01296    0.26208    0.38722   1.00
H2       1.14819    0.18549    0.35729   1.00
H2       1.09456    0.17204    0.33646   1.00
H2       1.17702    0.24485    0.33716   1.00
H2       1.14414    0.33422    0.38054   1.00
H2       1.17730    0.27896    0.38231   1.00
H2       1.20569    0.34027    0.36276   1.00
H2       1.05259    0.36054    0.30495   1.00
H2       1.13526    0.38773    0.29539   1.00
H2       1.07563    0.30062    0.29708   1.00
H2       1.20007    0.45363    0.32468   1.00
H2       1.12352    0.44197    0.33539   1.00
H2       1.17874    0.42386    0.34965   1.00
C4       0.80483    0.65180    0.83051   1.00
C4       0.83147    0.70830    0.84420   1.00
C3       0.74705    0.63266    0.81796   1.00
C3       0.79944    0.74739    0.84808   1.00
C3       0.83671    0.61117    0.82938   1.00
C3       0.89367    0.72743    0.85467   1.00
C2       0.75205    0.53481    0.80394   1.00
C2       0.88776    0.82089    0.87248   1.00
C3       0.72112    0.57557    0.80513   1.00
C3       0.82711    0.80254    0.86168   1.00
C3       0.81054    0.55453    0.81606   1.00
C3       0.91914    0.78131    0.86896   1.00
H1       0.72226    0.65977    0.81774   1.00
H1       0.75485    0.73670    0.84124   1.00
C5       0.89470    0.62754    0.84151   1.00
C5       0.92984    0.69241    0.85098   1.00
H1       0.67889    0.56390    0.79652   1.00
H1       0.80203    0.82934    0.86375   1.00
H1       0.83507    0.52699    0.81499   1.00
H1       0.96133    0.79156    0.87728   1.00
O3       0.91826    0.58215    0.84293   1.00
O3       0.99603    0.71815    0.85774   1.00
Si1      0.89230    0.52687    0.86144   1.00
Si1      1.05855    0.77433    0.84383   1.00
C6       0.92925    0.47909    0.85261   1.00
C6       0.93248    0.57171    0.88380   1.00
C6       0.80265    0.47621    0.86291   1.00
C6       1.03828    0.80182    0.82112   1.00
C6       1.10148    0.84398    0.86033   1.00
C6       1.11291    0.74143    0.83868   1.00
C6       0.91725    0.45848    0.82963   1.00
H2       0.98371    0.51565    0.85393   1.00
C6       0.91783    0.41352    0.86414   1.00
H2       0.97821    0.61585    0.87784   1.00
C6       0.89564    0.60130    0.89689   1.00
C6       0.95853    0.53775    0.89939   1.00
H2       0.78872    0.46037    0.84715   1.00
C6       0.77280    0.40889    0.87565   1.00
C6       0.75944    0.50956    0.86976   1.00
C6       0.99421    0.74668    0.80495   1.00
C6       1.00987    0.85221    0.82215   1.00
H2       1.08830    0.83225    0.81410   1.00
H2       1.06638    0.86348    0.86203   1.00
C6       1.11417    0.82689    0.88236   1.00
C6       1.17062    0.90518    0.85285   1.00
H2       1.14383    0.75277    0.85238   1.00
C6       1.07796    0.66257    0.83611   1.00
C6       1.16455    0.77318    0.82067   1.00
H2       0.93415    0.50301    0.81986   1.00
H2       0.86333    0.42333    0.82652   1.00
H2       0.94599    0.43372    0.82503   1.00
H2       0.96320    0.40839    0.86280   1.00
H2       0.90766    0.41444    0.88021   1.00
H2       0.87554    0.36694    0.85782   1.00
H2       0.93120    0.63940    0.90760   1.00
H2       0.87541    0.62692    0.88765   1.00
H2       0.85403    0.56132    0.90570   1.00
H2       0.99351    0.52396    0.89231   1.00
H2       0.98698    0.57275    0.91176   1.00
H2       0.91608    0.49224    0.90614   1.00
H2       0.79375    0.41904    0.89100   1.00
H2       0.71720    0.38338    0.87688   1.00
H2       0.78323    0.37184    0.86849   1.00
H2       0.75400    0.50916    0.88622   1.00
H2       0.78062    0.56196    0.86487   1.00
H2       0.70801    0.48114    0.86340   1.00
H2       0.93995    0.72267    0.80830   1.00
H2       1.00185    0.76986    0.78993   1.00
H2       1.00760    0.70685    0.80380   1.00
H2       1.00906    0.87178    0.80704   1.00
H2       0.95793    0.82786    0.82791   1.00
H2       1.04149    0.89665    0.83155   1.00
H2       1.13025    0.87100    0.89231   1.00
H2       1.06767    0.78514    0.88893   1.00
H2       1.15365    0.81271    0.88278   1.00
H2       1.16608    0.92203    0.83772   1.00
H2       1.18720    0.94896    0.86298   1.00
H2       1.21089    0.89201    0.85260   1.00
H2       1.04324    0.64426    0.82320   1.00
H2       1.11540    0.64602    0.83415   1.00
H2       1.04872    0.63745    0.84961   1.00
H2       1.20196    0.75607    0.82100   1.00
H2       1.13857    0.75843    0.80602   1.00
H2       1.19319    0.82869    0.82145   1.00
C4       0.35001    0.16120    0.83128   1.00
C4       0.29230    0.13001    0.84452   1.00
C3       0.35457    0.20191    0.81432   1.00
C3       0.23102    0.13123    0.84106   1.00
C3       0.40619    0.15060    0.83489   1.00
C3       0.29544    0.09566    0.86228   1.00
C2       0.46704    0.21971    0.80466   1.00
C2       0.17726    0.06438    0.87176   1.00
C3       0.41127    0.23006    0.80130   1.00
C3       0.17530    0.09988    0.85439   1.00
C3       0.46348    0.18049    0.82180   1.00
C3       0.23768    0.06191    0.87506   1.00
H1       0.31693    0.21250    0.81097   1.00
H1       0.22490    0.15456    0.82868   1.00
C5       0.40490    0.11044    0.85159   1.00
C5       0.35587    0.09458    0.86713   1.00
H1       0.41150    0.25865    0.78919   1.00
H1       0.13251    0.10291    0.85121   1.00
H1       0.50420    0.17401    0.82490   1.00
H1       0.23920    0.03387    0.88700   1.00
O3       0.45346    0.09096    0.85308   1.00
O3       0.36486    0.07380    0.88603   1.00
Si1      0.43774    0.01751    0.84390   1.00
Si1      0.39410    0.12919    0.90449   1.00
C6       0.52045    0.02956    0.84713   1.00
C6       0.37878    -0.04639   0.86026   1.00
C6       0.41401    0.00664    0.81807   1.00
C6       0.41010    0.21270    0.89960   1.00
C6       0.33064    0.09108    0.92314   1.00
C6       0.46842    0.13181    0.91367   1.00
C6       0.58064    0.09969    0.83965   1.00
H2       0.52528    0.03058    0.86363   1.00
C6       0.53849    -0.02533   0.83962   1.00
H2       0.38821    -0.01874   0.87455   1.00
C6       0.30093    -0.07739   0.85585   1.00
C6       0.38792    -0.10904   0.86508   1.00
H2       0.45281    0.05479    0.81143   1.00
C6       0.41828    -0.05101   0.80617   1.00
C6       0.34299    -0.00242   0.81177   1.00
C6       0.46057    0.25389    0.88208   1.00
C6       0.34877    0.22603    0.89773   1.00
H2       0.43566    0.23956    0.91349   1.00
H2       0.28771    0.09419    0.91686   1.00
C6       0.30284    0.01340    0.92713   1.00
C6       0.34581    0.12634    0.94440   1.00
H2       0.44929    0.08757    0.92367   1.00
C6       0.51303    0.12127    0.89768   1.00
C6       0.51890    0.19469    0.92678   1.00
H2       0.57896    0.14249    0.84669   1.00
H2       0.57912    0.10487    0.82320   1.00
H2       0.63003    0.10515    0.84359   1.00
H2       0.57616    -0.02653   0.84973   1.00
H2       0.49452    -0.07650   0.83918   1.00
H2       0.56109    -0.01399   0.82447   1.00
H2       0.27055    -0.10480   0.86912   1.00
H2       0.28795    -0.03826   0.85238   1.00
H2       0.28454    -0.11351   0.84327   1.00
H2       0.43845    -0.09299   0.87124   1.00
H2       0.35143    -0.14208   0.87656   1.00
H2       0.37999    -0.13992   0.85153   1.00
H2       0.38964    -0.10004   0.81389   1.00
H2       0.39817    -0.05714   0.79074   1.00
H2       0.47079    -0.03903   0.80431   1.00
H2       0.30239    -0.05565   0.81238   1.00
H2       0.32693    0.02630    0.82114   1.00
H2       0.34518    0.01498    0.79616   1.00
H2       0.43537    0.24115    0.86736   1.00
H2       0.48141    0.30863    0.88430   1.00
H2       0.50369    0.24527    0.88137   1.00
H2       0.36694    0.28079    0.89760   1.00
H2       0.31995    0.20514    0.88381   1.00
H2       0.31368    0.20500    0.91050   1.00
H2       0.25629    -0.00811   0.93626   1.00
H2       0.28963    -0.01550   0.91296   1.00
H2       0.33973    0.00448    0.93520   1.00
H2       0.36368    0.18075    0.94313   1.00
H2       0.29946    0.10411    0.95364   1.00
H2       0.38395    0.11982    0.95268   1.00
H2       0.53331    0.16133    0.88621   1.00
H2       0.55578    0.11960    0.90476   1.00
H2       0.48259    0.07289    0.88997   1.00
H2       0.55692    0.18546    0.93407   1.00
H2       0.54621    0.24063    0.91752   1.00
H2       0.49256    0.20512    0.93887   1.00
C4       0.83844    0.18898    0.83149   1.00
C4       0.86957    0.16229    0.84468   1.00
C3       0.78996    0.14970    0.81635   1.00
C3       0.86007    0.09560    0.84284   1.00
C3       0.85722    0.25907    0.83318   1.00
C3       0.91258    0.20405    0.86070   1.00
C2       0.78035    0.24757    0.80473   1.00
C2       0.93556    0.11262    0.87169   1.00
C3       0.76198    0.17823    0.80326   1.00
C3       0.89163    0.07119    0.85609   1.00
C3       0.82746    0.28657    0.82008   1.00
C3       0.94620    0.17951    0.87334   1.00
H1       0.77337    0.09915    0.81444   1.00
H1       0.83030    0.06295    0.83176   1.00
C5       0.90539    0.30117    0.84800   1.00
C5       0.92236    0.27022    0.86394   1.00
H1       0.72752    0.14745    0.79250   1.00
H1       0.88243    0.02232    0.85414   1.00
H1       0.84000    0.33644    0.82184   1.00
H1       0.98021    0.21154    0.88390   1.00
O3       0.93179    0.37073    0.84740   1.00
O3       0.95227    0.30594    0.88154   1.00
Si1      1.00330    0.41900    0.83545   1.00
Si1      0.90470    0.29205    0.90156   1.00
C6       1.00125    0.49576    0.83710   1.00
C6       1.06965    0.42250    0.85034   1.00
C6       1.00216    0.39462    0.80995   1.00
C6       0.81737    0.22955    0.90000   1.00
C6       0.94447    0.26777    0.91997   1.00
C6       0.91383    0.37098    0.90891   1.00
C6       0.93189    0.49105    0.83127   1.00
H2       1.00699    0.50599    0.85339   1.00
C6       1.05779    0.56283    0.82678   1.00
H2       1.04725    0.41204    0.86549   1.00
C6       1.09161    0.36798    0.84655   1.00
C6       1.13799    0.49200    0.85211   1.00
H2       0.95369    0.38818    0.80452   1.00
C6       1.05836    0.44817    0.79549   1.00
C6       1.00123    0.32620    0.80509   1.00
C6       0.77334    0.23776    0.88317   1.00
C6       0.79581    0.15215    0.90027   1.00
H2       0.79745    0.23657    0.91431   1.00
H2       0.93399    0.21752    0.91496   1.00
C6       1.02404    0.31217    0.92119   1.00
C6       0.91741    0.25885    0.94223   1.00
H2       0.96171    0.39567    0.91736   1.00
C6       0.92378    0.42162    0.89147   1.00
C6       0.85877    0.37044    0.92342   1.00
H2       0.88965    0.45219    0.84019   1.00
H2       0.92005    0.47855    0.81523   1.00
H2       0.93325    0.53925    0.83418   1.00
H2       1.06713    0.60719    0.83580   1.00
H2       1.10615    0.56403    0.82519   1.00
H2       1.04273    0.57040    0.81169   1.00
H2       1.12187    0.36646    0.85926   1.00
H2       1.04793    0.31678    0.84516   1.00
H2       1.12272    0.37964    0.83289   1.00
H2       1.12925    0.53240    0.85766   1.00
H2       1.17278    0.48866    0.86296   1.00
H2       1.16423    0.50733    0.83752   1.00
H2       1.10932    0.46650    0.80170   1.00
H2       1.05664    0.42704    0.78043   1.00
H2       1.05105    0.49145    0.79286   1.00
H2       1.05252    0.33322    0.80436   1.00
H2       0.97297    0.28618    0.81605   1.00
H2       0.97736    0.30656    0.79033   1.00
H2       0.77821    0.21769    0.86864   1.00
H2       0.71932    0.20965    0.88727   1.00
H2       0.78694    0.29073    0.88101   1.00
H2       0.74057    0.12035    0.90210   1.00
H2       0.80910    0.13614    0.88627   1.00
H2       0.81869    0.13959    0.91289   1.00
H2       1.04474    0.28668    0.93047   1.00
H2       1.04737    0.31987    0.90620   1.00
H2       1.04058    0.36212    0.92788   1.00
H2       0.86207    0.22662    0.94292   1.00
H2       0.93893    0.23427    0.95157   1.00
H2       0.93167    0.30797    0.94919   1.00
H2       0.87984    0.40147    0.88135   1.00
H2       0.93304    0.47063    0.89734   1.00
H2       0.96798    0.43173    0.88245   1.00
H2       0.87548    0.42159    0.92929   1.00
H2       0.81032    0.35302    0.91557   1.00
H2       0.84951    0.33762    0.93653   1.00
C4       -0.01677   0.46882    0.33545   1.00
C4       0.03985    0.49625    0.32179   1.00
C3       -0.06138   0.39786    0.33837   1.00
C3       0.05379    0.45571    0.30835   1.00
C3       -0.03066   0.51441    0.34668   1.00
C3       0.08557    0.56815    0.32142   1.00
C2       -0.13215   0.41739    0.36262   1.00
C2       0.15453    0.55574    0.29428   1.00
C3       -0.11771   0.37281    0.35149   1.00
C3       0.10990    0.48453    0.29511   1.00
C3       -0.08700   0.48812    0.36013   1.00
C3       0.14011    0.59643    0.30735   1.00
H1       -0.05413   0.36230    0.33110   1.00
H1       0.02336    0.40410    0.30770   1.00
C5       0.01197    0.58595    0.34448   1.00
C5       0.07636    0.61155    0.33494   1.00
H1       -0.14849   0.32098    0.35287   1.00
H1       0.11780    0.45266    0.28586   1.00
H1       -0.09522   0.52142    0.36850   1.00
H1       0.16977    0.64828    0.30638   1.00
O3       -0.00785   0.62937    0.35264   1.00
O3       0.12683    0.67865    0.33768   1.00
Si1      -0.04954   0.65591    0.33868   1.00
Si1      0.18765    0.69580    0.35394   1.00
C6       -0.06934   0.69644    0.35823   1.00
C6       0.00891    0.71580    0.32131   1.00
C6       -0.12418   0.58889    0.32771   1.00
C6       0.18759    0.62706    0.36668   1.00
C6       0.26183    0.73900    0.33918   1.00
C6       0.18750    0.75403    0.37163   1.00
C6       -0.09871   0.65416    0.37822   1.00
H2       -0.01910   0.73861    0.36233   1.00
C6       -0.11449   0.72978    0.35398   1.00
H2       0.05729    0.73419    0.32924   1.00
C6       0.01811    0.68954    0.30025   1.00
C6       0.00410    0.78091    0.31643   1.00
H2       -0.14807   0.55488    0.34063   1.00
C6       -0.17835   0.60659    0.31943   1.00
C6       -0.11795   0.54442    0.31045   1.00
C6       0.12297    0.57765    0.37927   1.00
C6       0.20970    0.58098    0.35500   1.00
H2       0.22807    0.65327    0.37786   1.00
H2       0.26004    0.69937    0.32936   1.00
C6       0.26529    0.79502    0.32451   1.00
C6       0.33183    0.77151    0.35051   1.00
H2       0.21511    0.80323    0.36395   1.00
C6       0.11657    0.74557    0.37692   1.00
C6       0.22491    0.76298    0.39235   1.00
H2       -0.06474   0.63736    0.38436   1.00
H2       -0.14852   0.60898    0.37559   1.00
H2       -0.10464   0.68466    0.39004   1.00
H2       -0.09805   0.77465    0.36361   1.00
H2       -0.11159   0.74614    0.33834   1.00
H2       -0.16823   0.69526    0.35745   1.00
H2       0.06488    0.72799    0.29284   1.00
H2       0.02255    0.64405    0.30167   1.00
H2       -0.02433   0.67838    0.29011   1.00
H2       0.00745    0.80921    0.33019   1.00
H2       0.04623    0.81625    0.30672   1.00
H2       -0.04339   0.76762    0.30855   1.00
H2       -0.15536   0.64910    0.30875   1.00
H2       -0.22045   0.56326    0.31167   1.00
H2       -0.20207   0.61939    0.33168   1.00
H2       -0.11365   0.56664    0.29545   1.00
H2       -0.07457   0.53697    0.31224   1.00
H2       -0.16341   0.49369    0.31025   1.00
H2       0.08341    0.53860    0.36974   1.00
H2       0.13588    0.55117    0.39078   1.00
H2       0.10125    0.60449    0.38721   1.00
H2       0.21628    0.54736    0.36553   1.00
H2       0.17199    0.54840    0.34386   1.00
H2       0.25847    0.61087    0.34728   1.00
H2       0.30704    0.81051    0.31365   1.00
H2       0.21847    0.77597    0.31564   1.00
H2       0.27361    0.84048    0.33266   1.00
H2       0.33486    0.73520    0.36072   1.00
H2       0.37366    0.78793    0.33963   1.00
H2       0.34093    0.81625    0.35926   1.00
H2       0.08279    0.69659    0.38407   1.00
H2       0.12133    0.78596    0.38703   1.00
H2       0.09191    0.74878    0.36318   1.00
H2       0.23025    0.80736    0.40057   1.00
H2       0.19678    0.71842    0.40210   1.00
H2       0.27622    0.77122    0.39021   1.00
C4       0.48569    1.01712    0.33532   1.00
C4       0.45658    0.96046    0.32167   1.00
C3       0.46335    1.06544    0.33681   1.00
C3       0.40662    0.94997    0.30690   1.00
C3       0.54095    1.02713    0.34805   1.00
C3       0.47806    0.91105    0.32274   1.00
C2       0.54945    1.13224    0.36259   1.00
C2       0.40132    0.84538    0.29431   1.00
C3       0.49457    1.12164    0.34997   1.00
C3       0.37926    0.89369    0.29372   1.00
C3       0.57091    1.08344    0.36150   1.00
C3       0.45200    0.85630    0.30874   1.00
H1       0.42360    1.06110    0.32842   1.00
H1       0.38894    0.98313    0.30519   1.00
C5       0.56572    0.98067    0.34732   1.00
C5       0.52583    0.91677    0.33761   1.00
H1       0.47656    1.15519    0.35029   1.00
H1       0.34284    0.88841    0.28345   1.00
H1       0.60925    1.08890    0.37095   1.00
H1       0.47109    0.82383    0.30885   1.00
O3       0.62577    0.99648    0.35701   1.00
O3       0.53708    0.86323    0.34156   1.00
Si1      0.69761    1.03418    0.34449   1.00
Si1      0.48665    0.80387    0.35737   1.00
C6       0.75215    1.05038    0.36545   1.00
C6       0.69849    0.97318    0.32807   1.00
C6       0.71340    1.11074    0.33270   1.00
C6       0.41799    0.80945    0.36805   1.00
C6       0.45469    0.72911    0.34283   1.00
C6       0.53823    0.79983    0.37670   1.00
C6       0.73737    1.08218    0.38456   1.00
H2       0.73948    0.99901    0.37002   1.00
C6       0.83174    1.09104    0.36286   1.00
H2       0.66411    0.92550    0.33580   1.00
C6       0.66890    0.96600    0.30619   1.00
C6       0.76684    0.97268    0.32519   1.00
H2       0.70254    1.13651    0.34493   1.00
C6       0.78835    1.16119    0.32577   1.00
C6       0.66858    1.10789    0.31411   1.00
C6       0.43464    0.87547    0.38010   1.00
C6       0.35387    0.79160    0.35474   1.00
H2       0.39849    0.76881    0.37936   1.00
H2       0.42102    0.73371    0.33191   1.00
C6       0.50815    0.72121    0.32980   1.00
C6       0.41063    0.65966    0.35404   1.00
H2       0.55850    0.76941    0.37008   1.00
C6       0.60227    0.86861    0.38277   1.00
C6       0.50313    0.76363    0.39705   1.00
H2       0.68470    1.05100    0.38969   1.00
H2       0.74636    1.13339    0.38135   1.00
H2       0.76983    1.08572    0.39732   1.00
H2       0.85530    1.07198    0.37353   1.00
H2       0.84810    1.08672    0.34771   1.00
H2       0.85354    1.14532    0.36609   1.00
H2       0.65901    0.91804    0.29924   1.00
H2       0.62049    0.96528    0.30621   1.00
H2       0.70457    1.00739    0.29639   1.00
H2       0.78714    0.96753    0.33967   1.00
H2       0.75934    0.92936    0.31592   1.00
H2       0.80516    1.01911    0.31765   1.00
H2       0.80772    1.13566    0.31603   1.00
H2       0.79236    1.20477    0.31739   1.00
H2       0.82219    1.18317    0.33870   1.00
H2       0.68894    1.10178    0.29976   1.00
H2       0.61615    1.06689    0.31504   1.00
H2       0.66719    1.15540    0.31310   1.00
H2       0.44054    0.91626    0.37005   1.00
H2       0.39323    0.86534    0.39060   1.00
H2       0.48087    0.89438    0.38912   1.00
H2       0.31243    0.78807    0.36415   1.00
H2       0.36442    0.83008    0.34324   1.00
H2       0.33381    0.74237    0.34720   1.00
H2       0.48234    0.67978    0.31882   1.00
H2       0.54050    0.76743    0.32110   1.00
H2       0.54103    0.70986    0.33913   1.00
H2       0.37037    0.65975    0.36311   1.00
H2       0.38563    0.61808    0.34306   1.00
H2       0.44188    0.64764    0.36393   1.00
H2       0.58872    0.90492    0.38895   1.00
H2       0.63353    0.86111    0.39395   1.00
H2       0.63413    0.89177    0.36954   1.00
H2       0.53804    0.75523    0.40646   1.00
H2       0.48732    0.79422    0.40587   1.00
H2       0.45841    0.71373    0.39441   1.00
C4       0.53144    0.51432    0.33533   1.00
C4       0.50388    0.54343    0.32168   1.00
C3       0.60211    0.53683    0.33687   1.00
C3       0.54342    0.59359    0.30695   1.00
C3       0.48616    0.45887    0.34799   1.00
C3       0.43294    0.52174    0.32268   1.00
C2       0.58280    0.45055    0.36259   1.00
C2       0.44407    0.59868    0.29431   1.00
C3       0.62710    0.50561    0.35004   1.00
C3       0.51450    0.62094    0.29377   1.00
C3       0.51250    0.42891    0.36145   1.00
C3       0.40427    0.54781    0.30869   1.00
H1       0.63754    0.57671    0.32853   1.00
H1       0.59429    0.61142    0.30529   1.00
C5       0.41490    0.43392    0.34720   1.00
C5       0.39082    0.47377    0.33751   1.00
H1       0.67868    0.52375    0.35040   1.00
H1       0.54568    0.65751    0.28355   1.00
H1       0.47960    0.39043    0.37085   1.00
H1       0.35268    0.52859    0.30875   1.00
O3       0.37068    0.37372    0.35683   1.00
O3       0.32593    0.46229    0.34140   1.00
Si1      0.33684    0.30202    0.34425   1.00
Si1      0.31665    0.51244    0.35724   1.00
C6       0.29840    0.24723    0.36515   1.00
C6       0.27504    0.30111    0.32779   1.00
C6       0.39788    0.28657    0.33249   1.00
C6       0.39068    0.58112    0.36800   1.00
C6       0.27383    0.54436    0.34269   1.00
C6       0.26091    0.46058    0.37650   1.00
C6       0.34481    0.26194    0.38430   1.00
H2       0.25955    0.25971    0.36971   1.00
C6       0.25969    0.16768    0.36249   1.00
H2       0.26152    0.33531    0.33553   1.00
C6       0.29762    0.33094    0.30594   1.00
C6       0.20632    0.23267    0.32482   1.00
H2       0.43441    0.29741    0.34475   1.00
C6       0.37366    0.21173    0.32550   1.00
C6       0.43997    0.33164    0.31395   1.00
C6       0.44006    0.56454    0.38008   1.00
C6       0.43695    0.64542    0.35476   1.00
H2       0.36932    0.60041    0.37931   1.00
H2       0.31217    0.57821    0.33181   1.00
C6       0.21268    0.49093    0.32959   1.00
C6       0.24815    0.58816    0.35391   1.00
H2       0.21026    0.44024    0.36984   1.00
C6       0.26579    0.39659    0.38253   1.00
C6       0.25948    0.49541    0.39687   1.00
H2       0.36611    0.31454    0.38947   1.00
H2       0.38716    0.25314    0.38112   1.00
H2       0.31581    0.22931    0.39702   1.00
H2       0.21697    0.14390    0.37312   1.00
H2       0.23919    0.15142    0.34732   1.00
H2       0.29226    0.14598    0.36573   1.00
H2       0.25953    0.34076    0.29897   1.00
H2       0.34522    0.37943    0.30602   1.00
H2       0.30357    0.29545    0.29612   1.00
H2       0.18075    0.21218    0.33928   1.00
H2       0.17053    0.24014    0.31554   1.00
H2       0.21465    0.19452    0.31727   1.00
H2       0.32885    0.19234    0.31572   1.00
H2       0.41340    0.20794    0.31714   1.00
H2       0.36175    0.17777    0.33840   1.00
H2       0.41367    0.31137    0.29957   1.00
H2       0.45124    0.38401    0.31492   1.00
H2       0.48896    0.33319    0.31298   1.00
H2       0.47513    0.55887    0.37005   1.00
H2       0.47114    0.60587    0.39062   1.00
H2       0.41274    0.51821    0.38905   1.00
H2       0.47469    0.68683    0.36421   1.00
H2       0.46508    0.63510    0.34327   1.00
H2       0.40775    0.66543    0.34722   1.00
H2       0.19707    0.51676    0.31862   1.00
H2       0.22677    0.45876    0.32088   1.00
H2       0.16839    0.45786    0.33887   1.00
H2       0.28833    0.62839    0.36303   1.00
H2       0.23157    0.61317    0.34293   1.00
H2       0.20480    0.55672    0.36375   1.00
H2       0.31562    0.41022    0.38876   1.00
H2       0.22696    0.36515    0.39367   1.00
H2       0.25732    0.36488    0.36928   1.00
H2       0.21610    0.46032    0.40624   1.00
H2       0.30580    0.51125    0.40574   1.00
H2       0.25417    0.54006    0.39425   1.00
C4       0.19110    0.34753    0.16970   1.00
C4       0.16359    0.29089    0.15604   1.00
C3       0.15550    0.35149    0.18690   1.00
C3       0.09560    0.23553    0.15716   1.00
C3       0.25747    0.40415    0.16592   1.00
C3       0.20594    0.28877    0.14036   1.00
C2       0.24889    0.46534    0.19601   1.00
C2       0.11130    0.17896    0.12757   1.00
C3       0.18339    0.40890    0.19963   1.00
C3       0.07034    0.18078    0.14344   1.00
C3       0.28522    0.46105    0.17916   1.00
C3       0.17862    0.23459    0.12616   1.00
H1       0.10836    0.31267    0.19072   1.00
H1       0.06231    0.23356    0.16789   1.00
C5       0.29579    0.40344    0.14898   1.00
C5       0.27510    0.34093    0.13879   1.00
H1       0.15507    0.40909    0.21176   1.00
H1       0.02094    0.14187    0.14508   1.00
H1       0.33364    0.50046    0.17658   1.00
H1       0.20826    0.23603    0.11426   1.00
O3       0.35441    0.46220    0.14346   1.00
O3       0.32025    0.33329    0.12647   1.00
Si1      0.35090    0.51269    0.12642   1.00
Si1      0.35801    0.29343    0.13538   1.00
C6       0.43556    0.58025    0.12918   1.00
C6       0.33858    0.47238    0.10267   1.00
C6       0.29163    0.53912    0.13238   1.00
C6       0.33696    0.25922    0.16015   1.00
C6       0.33534    0.22708    0.11787   1.00
C6       0.44653    0.34958    0.13339   1.00
C6       0.46032    0.60293    0.15152   1.00
H2       0.46503    0.55734    0.12368   1.00
C6       0.46223    0.64830    0.11689   1.00
H2       0.35984    0.43914    0.10528   1.00
C6       0.26387    0.42465    0.09515   1.00
C6       0.37761    0.51693    0.08383   1.00
H2       0.30379    0.55467    0.14823   1.00
C6       0.29866    0.60274    0.12078   1.00
C6       0.21314    0.48597    0.13160   1.00
C6       0.34703    0.30883    0.17802   1.00
C6       0.26697    0.19283    0.16403   1.00
H2       0.37430    0.24300    0.16281   1.00
H2       0.28107    0.19304    0.12063   1.00
C6       0.34096    0.24714    0.09493   1.00
C6       0.37025    0.18280    0.12016   1.00
H2       0.45806    0.34513    0.11758   1.00
C6       0.47150    0.42680    0.13647   1.00
C6       0.49511    0.33412    0.14640   1.00
H2       0.45390    0.56011    0.16077   1.00
H2       0.43206    0.62471    0.15874   1.00
H2       0.51454    0.64119    0.15198   1.00
H2       0.51625    0.66960    0.11327   1.00
H2       0.43521    0.64134    0.10268   1.00
H2       0.45827    0.68736    0.12552   1.00
H2       0.26285    0.39216    0.08272   1.00
H2       0.23140    0.39046    0.10702   1.00
H2       0.24114    0.45416    0.08955   1.00
H2       0.43255    0.54535    0.08643   1.00
H2       0.36971    0.48527    0.07044   1.00
H2       0.36017    0.55269    0.08007   1.00
H2       0.29879    0.59601    0.10438   1.00
H2       0.25709    0.61244    0.12440   1.00
H2       0.34497    0.64901    0.12511   1.00
H2       0.19186    0.48203    0.11648   1.00
H2       0.20067    0.43499    0.13607   1.00
H2       0.18554    0.50155    0.14191   1.00
H2       0.30372    0.31697    0.17953   1.00
H2       0.35195    0.28769    0.19242   1.00
H2       0.39290    0.35830    0.17621   1.00
H2       0.26563    0.17290    0.17925   1.00
H2       0.22413    0.20175    0.16300   1.00
H2       0.25814    0.15209    0.15350   1.00
H2       0.31512    0.20144    0.08546   1.00
H2       0.31647    0.27735    0.09190   1.00
H2       0.39386    0.27635    0.08990   1.00
H2       0.36698    0.16468    0.13568   1.00
H2       0.34503    0.13762    0.11046   1.00
H2       0.42387    0.21124    0.11572   1.00
H2       0.46043    0.43767    0.15167   1.00
H2       0.52628    0.45836    0.13382   1.00
H2       0.44626    0.44306    0.12568   1.00
H2       0.54811    0.36594    0.14156   1.00
H2       0.49241    0.34421    0.16248   1.00
H2       0.48287    0.28128    0.14480   1.00
C4       0.64594    0.84126    0.16724   1.00
C4       0.70375    0.87240    0.15405   1.00
C3       0.58238    0.83647    0.16273   1.00
C3       0.70575    0.90726    0.13593   1.00
C3       0.65175    0.81413    0.18620   1.00
C3       0.76314    0.86868    0.15904   1.00
C2       0.53254    0.78054    0.19518   1.00
C2       0.82316    0.93537    0.12840   1.00
C3       0.52735    0.80732    0.17635   1.00
C3       0.76356    0.93734    0.12335   1.00
C3       0.59522    0.78377    0.19957   1.00
C3       0.82187    0.90183    0.14662   1.00
H1       0.57414    0.85382    0.14937   1.00
H1       0.66544    0.91221    0.13139   1.00
C5       0.71387    0.81725    0.19165   1.00
C5       0.76392    0.83248    0.17648   1.00
H1       0.48278    0.80572    0.17232   1.00
H1       0.76189    0.96138    0.11034   1.00
H1       0.59953    0.76284    0.21287   1.00
H1       0.86541    0.90243    0.15109   1.00
O3       0.72301    0.80159    0.21117   1.00
O3       0.81493    0.81674    0.17943   1.00
Si1      0.75976    0.86224    0.22800   1.00
Si1      0.80741    0.74813    0.16888   1.00
C6       0.74439    0.80919    0.24929   1.00
C6       0.84736    0.90870    0.22207   1.00
C6       0.71993    0.91181    0.23069   1.00
C6       0.73546    0.69868    0.15340   1.00
C6       0.88186    0.77954    0.15422   1.00
C6       0.81197    0.69748    0.18841   1.00
C6       0.66981    0.74782    0.25153   1.00
H2       0.77570    0.78616    0.24596   1.00
C6       0.76580    0.84007    0.27117   1.00
H2       0.85451    0.87096    0.21382   1.00
C6       0.87315    0.97141    0.20752   1.00
C6       0.90025    0.93359    0.23984   1.00
H2       0.66613    0.87279    0.23187   1.00
C6       0.73676    0.95661    0.25028   1.00
C6       0.72518    0.96091    0.21305   1.00
C6       0.66312    0.67080    0.16296   1.00
C6       0.73197    0.72481    0.13167   1.00
H2       0.73981    0.65360    0.15040   1.00
H2       0.87398    0.80737    0.14200   1.00
C6       0.94974    0.83282    0.16483   1.00
C6       0.89653    0.72611    0.14383   1.00
H2       0.86652    0.72015    0.19131   1.00
C6       0.78058    0.69997    0.20922   1.00
C6       0.78505    0.62025    0.18388   1.00
H2       0.65350    0.71598    0.23794   1.00
H2       0.63363    0.76559    0.25426   1.00
H2       0.66589    0.71468    0.26414   1.00
H2       0.78077    0.80921    0.28022   1.00
H2       0.80850    0.89200    0.27115   1.00
H2       0.72398    0.84043    0.27931   1.00
H2       0.92396    0.98637    0.20170   1.00
H2       0.84034    0.96015    0.19433   1.00
H2       0.87654    1.01544    0.21538   1.00
H2       0.89299    0.89119    0.24943   1.00
H2       0.95252    0.95702    0.23410   1.00
H2       0.89665    0.97149    0.24919   1.00
H2       0.79173    0.98962    0.25215   1.00
H2       0.71366    0.98905    0.24998   1.00
H2       0.71615    0.92520    0.26375   1.00
H2       0.77089    1.01103    0.21431   1.00
H2       0.72585    0.94156    0.19808   1.00
H2       0.68136    0.96886    0.21350   1.00
H2       0.64696    0.70872    0.16262   1.00
H2       0.62511    0.62652    0.15448   1.00
H2       0.66101    0.65445    0.17860   1.00
H2       0.68969    0.68473    0.12302   1.00
H2       0.72380    0.76822    0.13212   1.00
H2       0.77799    0.73918    0.12288   1.00
H2       0.99067    0.85774    0.15366   1.00
H2       0.94431    0.87307    0.17221   1.00
H2       0.96629    0.80920    0.17621   1.00
H2       0.85227    0.68777    0.13549   1.00
H2       0.93817    0.75122    0.13288   1.00
H2       0.91157    0.70025    0.15492   1.00
H2       0.72591    0.68085    0.20817   1.00
H2       0.78905    0.67045    0.22078   1.00
H2       0.80467    0.75221    0.21462   1.00
H2       0.80010    0.59717    0.19591   1.00
H2       0.72945    0.59154    0.18285   1.00
H2       0.80586    0.61319    0.16977   1.00
C4       0.15768    0.80369    0.16728   1.00
C4       0.12667    0.83061    0.15412   1.00
C3       0.15071    0.73822    0.16479   1.00
C3       0.08067    0.79247    0.13832   1.00
C3       0.19714    0.84362    0.18410   1.00
C3       0.14224    0.89950    0.15672   1.00
C2       0.21919    0.75158    0.19513   1.00
C2       0.06490    0.88823    0.12845   1.00
C3       0.18027    0.71268    0.17838   1.00
C3       0.05111    0.82065    0.12571   1.00
C3       0.22761    0.81745    0.19742   1.00
C3       0.10965    0.92599    0.14442   1.00
H1       0.12414    0.70726    0.15299   1.00
H1       0.06696    0.74297    0.13558   1.00
C5       0.20615    0.90953    0.18745   1.00
C5       0.18970    0.94145    0.17168   1.00
H1       0.17307    0.66476    0.17590   1.00
H1       0.01866    0.79085    0.11442   1.00
H1       0.25734    0.84741    0.20910   1.00
H1       0.11798    0.97392    0.14731   1.00
O3       0.23431    0.94302    0.20540   1.00
O3       0.21561    1.01117    0.17182   1.00
Si1      0.18477    0.93624    0.22433   1.00
Si1      0.28129    1.05926    0.15756   1.00
C6       0.24958    0.97804    0.24262   1.00
C6       0.14594    0.98473    0.21819   1.00
C6       0.12784    0.85096    0.23137   1.00
C6       0.31438    1.01932    0.14188   1.00
C6       0.25175    1.10287    0.14240   1.00
C6       0.34567    1.11919    0.17357   1.00
C6       0.30417    0.95485    0.24376   1.00
H2       0.27687    1.03021    0.23685   1.00
C6       0.23176    0.98413    0.26526   1.00
H2       0.18250    1.02195    0.20755   1.00
C6       0.07606    0.94874    0.20675   1.00
C6       0.13706    1.02755    0.23532   1.00
H2       0.16146    0.82932    0.23208   1.00
C6       0.09345    0.83859    0.25276   1.00
C6       0.06758    0.80378    0.21678   1.00
C6       0.33784    0.97224    0.15217   1.00
C6       0.27487    0.98135    0.12220   1.00
H2       0.36102    1.06276    0.13606   1.00
H2       0.21478    1.06349    0.13233   1.00
C6       0.21143    1.13261    0.15365   1.00
C6       0.30487    1.16102    0.12843   1.00
H2       0.33156    1.15830    0.17586   1.00
C6       0.34921    1.09406    0.19531   1.00
C6       0.42067    1.15742    0.16541   1.00
H2       0.32814    0.95920    0.22904   1.00
H2       0.28137    0.90191    0.24879   1.00
H2       0.34516    0.98664    0.25431   1.00
H2       0.27134    1.03215    0.27178   1.00
H2       0.18345    0.98300    0.26687   1.00
H2       0.22931    0.94348    0.27478   1.00
H2       0.06493    0.98639    0.20012   1.00
H2       0.07602    0.91736    0.19424   1.00
H2       0.03426    0.91690    0.21701   1.00
H2       0.18572    1.06256    0.24246   1.00
H2       0.11726    1.05921    0.22924   1.00
H2       0.10144    0.99451    0.24693   1.00
H2       0.06795    0.86836    0.25465   1.00
H2       0.05556    0.78489    0.25524   1.00
H2       0.13052    0.85154    0.26485   1.00
H2       0.02231    0.80812    0.21943   1.00
H2       0.08022    0.81429    0.20086   1.00
H2       0.05277    0.75035    0.21925   1.00
H2       0.29520    0.92099    0.15469   1.00
H2       0.37432    0.96723    0.14250   1.00
H2       0.36298    0.99246    0.16665   1.00
H2       0.30618    0.96797    0.11276   1.00
H2       0.22808    0.93409    0.12555   1.00
H2       0.26208    1.01297    0.11278   1.00
H2       0.18548    1.14819    0.14271   1.00
H2       0.17203    1.09455    0.16354   1.00
H2       0.24484    1.17702    0.16285   1.00
H2       0.33421    1.14415    0.11947   1.00
H2       0.27895    1.17730    0.11769   1.00
H2       0.34026    1.20569    0.13725   1.00
H2       0.36053    1.05259    0.19505   1.00
H2       0.38772    1.13526    0.20461   1.00
H2       0.30061    1.07563    0.20292   1.00
H2       0.45363    1.20007    0.17532   1.00
H2       0.44197    1.12353    0.16462   1.00
H2       0.42385    1.17874    0.15036   1.00
C4       1.01448    0.52339    0.66376   1.00
C4       0.95794    0.49621    0.67746   1.00
C3       1.02638    0.48305    0.64968   1.00
C3       0.91125    0.42537    0.67971   1.00
C3       1.06273    0.59470    0.66427   1.00
C3       0.94677    0.54186    0.68962   1.00
C2       1.13188    0.58170    0.63729   1.00
C2       0.84574    0.44517    0.70581   1.00
C3       1.08364    0.51128    0.63688   1.00
C3       0.85632    0.40055    0.69336   1.00
C3       1.11949    0.62240    0.65097   1.00
C3       0.89284    0.51566    0.70390   1.00
H1       0.99366    0.43201    0.64825   1.00
H1       0.91602    0.38970    0.67160   1.00
C5       1.05383    0.63791    0.67799   1.00
C5       0.98975    0.61334    0.68763   1.00
H1       1.08984    0.47951    0.62710   1.00
H1       0.82385    0.34884    0.69422   1.00
H1       1.15265    0.67391    0.65111   1.00
H1       0.88815    0.54877    0.71340   1.00
O3       1.10584    0.70398    0.68083   1.00
O3       0.97221    0.65825    0.69614   1.00
Si1      1.16050    0.72154    0.69921   1.00
Si1      0.92206    0.67741    0.68352   1.00
C6       1.21732    0.80697    0.69230   1.00
C6       1.11829    0.71691    0.72213   1.00
C6       1.20089    0.67207    0.69849   1.00
C6       0.89012    0.63728    0.65986   1.00
C6       0.85391    0.65474    0.70034   1.00
C6       0.96558    0.76671    0.68064   1.00
C6       1.23798    0.81960    0.66934   1.00
H2       1.18657    0.83110    0.69486   1.00
C6       1.28533    0.85138    0.70435   1.00
H2       1.07826    0.72693    0.71705   1.00
C6       1.08082    0.64701    0.73353   1.00
C6       1.15818    0.77114    0.73899   1.00
H2       1.21601    0.67624    0.68257   1.00
C6       1.26794    0.69816    0.71116   1.00
C6       1.15856    0.59374    0.70342   1.00
C6       0.94260    0.64540    0.64312   1.00
C6       0.83198    0.56079    0.65923   1.00
H2       0.86540    0.66468    0.65406   1.00
H2       0.82771    0.59915    0.70061   1.00
C6       0.87362    0.67751    0.72293   1.00
C6       0.79928    0.67451    0.69426   1.00
H2       0.95789    0.78528    0.69512   1.00
C6       1.04448    0.80227    0.67807   1.00
C6       0.93992    0.79775    0.66394   1.00
H2       1.19322    0.79971    0.65952   1.00
H2       1.26735    0.79526    0.66499   1.00
H2       1.26889    0.87408    0.66605   1.00
H2       1.29774    0.90466    0.70457   1.00
H2       1.28246    0.83512    0.72001   1.00
H2       1.32874    0.85076    0.69736   1.00
H2       1.04534    0.64695    0.74480   1.00
H2       1.05059    0.60476    0.72330   1.00
H2       1.11697    0.63675    0.74152   1.00
H2       1.17838    0.82294    0.73327   1.00
H2       1.12489    0.76588    0.75172   1.00
H2       1.20014    0.76563    0.74498   1.00
H2       1.25997    0.70676    0.72697   1.00
H2       1.28667    0.66200    0.71094   1.00
H2       1.30922    0.74510    0.70491   1.00
H2       1.15782    0.58361    0.71963   1.00
H2       1.10596    0.56982    0.69848   1.00
H2       1.18120    0.56684    0.69582   1.00
H2       0.95989    0.60868    0.64504   1.00
H2       0.91934    0.63667    0.62808   1.00
H2       0.98718    0.69632    0.64299   1.00
H2       0.81128    0.54639    0.64389   1.00
H2       0.84993    0.52616    0.66363   1.00
H2       0.78916    0.55114    0.66898   1.00
H2       0.82877    0.65149    0.73272   1.00
H2       0.91096    0.66433    0.72856   1.00
H2       0.89476    0.73230    0.72483   1.00
H2       0.78092    0.65863    0.67881   1.00
H2       0.75486    0.64927    0.70426   1.00
H2       0.81947    0.72940    0.69551   1.00
H2       1.05901    0.78578    0.66435   1.00
H2       1.06789    0.85773    0.67759   1.00
H2       1.06655    0.79024    0.69093   1.00
H2       0.96388    0.85304    0.66572   1.00
H2       0.95203    0.78781    0.64872   1.00
H2       0.88502    0.77730    0.66485   1.00
C4       0.50943    -0.01434   0.66371   1.00
C4       0.53869    0.04224    0.67738   1.00
C3       0.46193    -0.02289   0.64831   1.00
C3       0.51877    0.09252    0.67825   1.00
C3       0.52751    -0.06612   0.66558   1.00
C3       0.59096    0.04964    0.69101   1.00
C2       0.44998    -0.13192   0.63730   1.00
C2       0.59925    0.15430    0.70580   1.00
C3       0.43271    -0.08022   0.63554   1.00
C3       0.54864    0.14737    0.69193   1.00
C3       0.49843    -0.12293   0.65230   1.00
C3       0.61833    0.10364    0.70526   1.00
H1       0.44735    0.01240    0.64588   1.00
H1       0.48169    0.09056    0.66905   1.00
C5       0.57474    -0.06067   0.68065   1.00
C5       0.61527    0.00287    0.69048   1.00
H1       0.39826    -0.08389   0.62478   1.00
H1       0.53262    0.18252    0.69175   1.00
H1       0.51331    -0.15870   0.65346   1.00
H1       0.65254    0.10576    0.71577   1.00
O3       0.58338    -0.11560   0.68464   1.00
O3       0.67431    0.01638    0.70053   1.00
Si1      0.53922    -0.16906   0.70266   1.00
Si1      0.74751    0.06277    0.68926   1.00
C6       0.56370    -0.23027   0.69744   1.00
C6       0.57301    -0.12780   0.72599   1.00
C6       0.45034    -0.20399   0.69990   1.00
C6       0.74786    0.09609    0.66498   1.00
C6       0.79235    0.13019    0.70636   1.00
C6       0.78849    0.01409    0.68836   1.00
C6       0.55988    -0.25147   0.67463   1.00
H2       0.61797    -0.20259   0.70115   1.00
C6       0.53290    -0.29871   0.70975   1.00
H2       0.62521    -0.09028   0.72181   1.00
C6       0.54226    -0.08627   0.73586   1.00
C6       0.57953    -0.16995   0.74378   1.00
H2       0.44248    -0.21910   0.68394   1.00
C6       0.40286    -0.27009   0.71230   1.00
C6       0.41810    -0.15726   0.70315   1.00
C6       0.70531    0.04482    0.64777   1.00
C6       0.73508    0.15774    0.66297   1.00
H2       0.80100    0.11758    0.66037   1.00
H2       0.76627    0.15961    0.70538   1.00
C6       0.78833    0.10994    0.72924   1.00
C6       0.86922    0.18096    0.70169   1.00
H2       0.81075    0.02029    0.70344   1.00
C6       0.74146    -0.06438   0.68568   1.00
C6       0.84869    0.03600    0.67300   1.00
H2       0.58953    -0.20718   0.66492   1.00
H2       0.50727    -0.27784   0.66915   1.00
H2       0.58073    -0.28538   0.67249   1.00
H2       0.57091    -0.31473   0.71134   1.00
H2       0.51660    -0.29443   0.72491   1.00
H2       0.48905    -0.34043   0.70212   1.00
H2       0.57624    -0.05202   0.74761   1.00
H2       0.53562    -0.05419   0.72487   1.00
H2       0.49315    -0.12000   0.74298   1.00
H2       0.60949    -0.19342   0.73930   1.00
H2       0.60591    -0.13738   0.75681   1.00
H2       0.52941    -0.20967   0.74897   1.00
H2       0.41555    -0.26282   0.72843   1.00
H2       0.34898    -0.28527   0.71076   1.00
H2       0.40650    -0.31341   0.70684   1.00
H2       0.40533    -0.15547   0.71902   1.00
H2       0.45086    -0.10505   0.69830   1.00
H2       0.37079    -0.17703   0.69446   1.00
H2       0.65187    0.03111    0.64835   1.00
H2       0.72462    0.06753    0.63287   1.00
H2       0.70787    -0.00187   0.64846   1.00
H2       0.74640    0.17843    0.64757   1.00
H2       0.68236    0.14327    0.66608   1.00
H2       0.76784    0.19973    0.67304   1.00
H2       0.80753    0.15513    0.73890   1.00
H2       0.73575    0.07523    0.73391   1.00
H2       0.81835    0.08546    0.73243   1.00
H2       0.87673    0.19952    0.68610   1.00
H2       0.88868    0.22569    0.71156   1.00
H2       0.90048    0.15737    0.70424   1.00
H2       0.71393    -0.07729   0.67131   1.00
H2       0.77034    -0.09112   0.68647   1.00
H2       0.70406    -0.08439   0.69781   1.00
H2       0.87631    0.00879    0.67605   1.00
H2       0.83029    0.02489    0.65737   1.00
H2       0.88574    0.09026    0.67412   1.00
C4       0.47624    0.49059    0.66371   1.00
C4       0.50355    0.46133    0.67739   1.00
C3       0.51526    0.53830    0.64837   1.00
C3       0.57379    0.48143    0.67831   1.00
C3       0.40631    0.47230    0.66553   1.00
C3       0.45863    0.40886    0.69095   1.00
C2       0.41810    0.55003    0.63730   1.00
C2       0.55503    0.40074    0.70580   1.00
C3       0.48715    0.56751    0.63560   1.00
C3       0.59877    0.45155    0.69199   1.00
C3       0.37858    0.50138    0.65225   1.00
C3       0.48525    0.38148    0.70521   1.00
H1       0.56519    0.55304    0.64598   1.00
H1       0.60894    0.51866    0.66916   1.00
C5       0.36446    0.42486    0.68054   1.00
C5       0.38753    0.38437    0.69037   1.00
H1       0.51797    0.60211    0.62488   1.00
H1       0.64996    0.46771    0.69185   1.00
H1       0.32787    0.48634    0.65336   1.00
H1       0.45310    0.34711    0.71567   1.00
O3       0.30076    0.41599    0.68449   1.00
O3       0.34201    0.32518    0.70035   1.00
Si1      0.29113    0.45987    0.70253   1.00
Si1      0.31551    0.25212    0.68902   1.00
C6       0.20542    0.43520    0.69724   1.00
C6       0.29847    0.42592    0.72584   1.00
C6       0.34490    0.54880    0.69985   1.00
C6       0.34878    0.25212    0.66476   1.00
C6       0.33809    0.20725    0.70611   1.00
C6       0.22584    0.21092    0.68804   1.00
C6       0.18825    0.43919    0.67442   1.00
H2       0.17893    0.38089    0.70090   1.00
C6       0.16750    0.46571    0.70954   1.00
H2       0.28398    0.37380    0.72162   1.00
C6       0.37067    0.45675    0.73577   1.00
C6       0.24956    0.41907    0.74360   1.00
H2       0.33779    0.55679    0.68390   1.00
C6       0.32597    0.59602    0.71227   1.00
C6       0.42386    0.58121    0.70317   1.00
C6       0.34010    0.29475    0.64757   1.00
C6       0.42332    0.26514    0.66281   1.00
H2       0.31730    0.19901    0.66010   1.00
H2       0.39361    0.23347    0.70519   1.00
C6       0.32158    0.21098    0.72898   1.00
C6       0.31224    0.13047    0.70138   1.00
H2       0.20968    0.18850    0.70310   1.00
C6       0.19424    0.25781    0.68537   1.00
C6       0.18785    0.15086    0.67262   1.00
H2       0.20310    0.40974    0.66470   1.00
H2       0.21441    0.49185    0.66899   1.00
H2       0.13348    0.41821    0.67223   1.00
H2       0.11349    0.42756    0.71108   1.00
H2       0.18790    0.48190    0.72473   1.00
H2       0.16957    0.50957    0.70194   1.00
H2       0.37092    0.42271    0.74750   1.00
H2       0.40954    0.46362    0.72482   1.00
H2       0.38583    0.50576    0.74294   1.00
H2       0.19618    0.38903    0.73907   1.00
H2       0.25570    0.39262    0.75661   1.00
H2       0.25976    0.46909    0.74882   1.00
H2       0.32040    0.58316    0.72839   1.00
H2       0.36458    0.64996    0.71078   1.00
H2       0.27900    0.59229    0.70678   1.00
H2       0.43823    0.59384    0.71905   1.00
H2       0.44350    0.54862    0.69832   1.00
H2       0.45138    0.62862    0.69453   1.00
H2       0.37970    0.34822    0.64821   1.00
H2       0.34372    0.27563    0.63266   1.00
H2       0.29077    0.29203    0.64823   1.00
H2       0.43290    0.25403    0.64741   1.00
H2       0.46143    0.31787    0.66597   1.00
H2       0.43256    0.23236    0.67286   1.00
H2       0.34757    0.19180    0.73864   1.00
H2       0.33926    0.26349    0.73370   1.00
H2       0.26705    0.18080    0.73212   1.00
H2       0.32349    0.12316    0.68579   1.00
H2       0.33751    0.11102    0.71126   1.00
H2       0.25738    0.09906    0.70388   1.00
H2       0.20894    0.28549    0.67103   1.00
H2       0.13861    0.22879    0.68611   1.00
H2       0.21140    0.29508    0.69753   1.00
H2       0.13299    0.12308    0.67562   1.00
H2       0.19525    0.16941    0.65701   1.00
H2       0.20519    0.11391    0.67373   1.00
C4       0.47470    -0.01989   0.16582   1.00
C4       0.50242    0.03818    0.17893   1.00
C3       0.50456    -0.06149   0.16302   1.00
C3       0.56591    0.06405    0.18909   1.00
C3       0.41431    -0.03720   0.15457   1.00
C3       0.46500    0.07267    0.18224   1.00
C2       0.41740    -0.13444   0.13826   1.00
C2       0.55573    0.15682    0.20484   1.00
C3       0.47696    -0.11696   0.14954   1.00
C3       0.59157    0.12134    0.20184   1.00
C3       0.38655    -0.09412   0.14133   1.00
C3       0.49311    0.13203    0.19445   1.00
H1       0.54710    -0.05286   0.17074   1.00
H1       0.59559    0.04230    0.18743   1.00
C5       0.38189    0.00228    0.15667   1.00
C5       0.40006    0.04821    0.17321   1.00
H1       0.50106    -0.14491   0.14803   1.00
H1       0.63749    0.13741    0.20893   1.00
H1       0.34217    -0.10706   0.13379   1.00
H1       0.46775    0.15865    0.19562   1.00
O3       0.33076    -0.00739   0.14342   1.00
O3       0.35738    0.07211    0.17930   1.00
Si1      0.34915    0.03984    0.12310   1.00
Si1      0.30825    0.03729    0.19896   1.00
C6       0.26796    -0.00497   0.11163   1.00
C6       0.36783    0.12187    0.13089   1.00
C6       0.41213    0.03775    0.10782   1.00
C6       0.31420    -0.02761   0.21209   1.00
C6       0.33140    0.10681    0.21526   1.00
C6       0.22370    0.00723    0.19097   1.00
C6       0.23453    -0.08457   0.11106   1.00
H2       0.23653    0.00509    0.12205   1.00
C6       0.25477    0.01552    0.09006   1.00
H2       0.33984    0.11097    0.14515   1.00
C6       0.44345    0.17553    0.13614   1.00
C6       0.34160    0.16133    0.11760   1.00
H2       0.39402    -0.01687   0.10692   1.00
C6       0.41866    0.06313    0.08538   1.00
C6       0.48783    0.07261    0.11559   1.00
C6       0.30189    -0.09199   0.19988   1.00
C6       0.37703    -0.00820   0.22618   1.00
H2       0.27158    -0.04606   0.22270   1.00
H2       0.38256    0.12045    0.22030   1.00
C6       0.33892    0.17294    0.20524   1.00
C6       0.28777    0.09381    0.23488   1.00
H2       0.21841    0.05258    0.19115   1.00
C6       0.20634    -0.02007   0.16880   1.00
C6       0.16453    -0.04680   0.20454   1.00
H2       0.23123    -0.10554   0.12620   1.00
H2       0.26373    -0.10014   0.10147   1.00
H2       0.18247    -0.10862   0.10516   1.00
H2       0.20259    0.00621    0.08910   1.00
H2       0.28887    0.06895    0.08650   1.00
H2       0.26011    -0.01453   0.07799   1.00
H2       0.44600    0.21810    0.14471   1.00
H2       0.46743    0.15401    0.14557   1.00
H2       0.47387    0.19653    0.12242   1.00
H2       0.28647    0.13171    0.11546   1.00
H2       0.35194    0.20902    0.12486   1.00
H2       0.36645    0.17417    0.10277   1.00
H2       0.42530    0.11430    0.08478   1.00
H2       0.46191    0.06450    0.07753   1.00
H2       0.37418    0.02883    0.07648   1.00
H2       0.51673    0.12657    0.11158   1.00
H2       0.49204    0.06937    0.13187   1.00
H2       0.51407    0.04811    0.10870   1.00
H2       0.34774    -0.08340   0.19196   1.00
H2       0.28716    -0.13520   0.21009   1.00
H2       0.26115    -0.10771   0.18878   1.00
H2       0.36867    -0.05201   0.23535   1.00
H2       0.42370    0.00796    0.21762   1.00
H2       0.38581    0.03215    0.23687   1.00
H2       0.36438    0.21621    0.21563   1.00
H2       0.37008    0.18654    0.19151   1.00
H2       0.28961    0.16732    0.20125   1.00
H2       0.28152    0.04947    0.24325   1.00
H2       0.31276    0.13754    0.24514   1.00
H2       0.23732    0.08623    0.23134   1.00
H2       0.21230    -0.06445   0.16642   1.00
H2       0.15426    -0.03390   0.16467   1.00
H2       0.24006    0.01935    0.15829   1.00
H2       0.11538    -0.05337   0.19972   1.00
H2       0.16119    -0.09657   0.20363   1.00
H2       0.17110    -0.03127   0.22041   1.00
C4       1.01772    0.48596    0.16490   1.00
C4       0.96096    0.45695    0.17852   1.00
C3       1.07180    0.47136    0.16565   1.00
C3       0.95571    0.41545    0.19535   1.00
C3       1.02170    0.53308    0.14983   1.00
C3       0.90595    0.46962    0.17526   1.00
C2       1.13243    0.54932    0.13748   1.00
C2       0.84519    0.40145    0.20562   1.00
C3       1.12777    0.50243    0.15240   1.00
C3       0.89914    0.38792    0.20842   1.00
C3       1.07797    0.56290    0.13636   1.00
C3       0.85080    0.44381    0.18911   1.00
H1       1.07198    0.43755    0.17580   1.00
H1       0.99300    0.40434    0.19868   1.00
C5       0.96931    0.54987    0.14826   1.00
C5       0.90644    0.50843    0.15833   1.00
H1       1.16561    0.49027    0.15376   1.00
H1       0.89783    0.35777    0.22024   1.00
H1       1.07919    0.59515    0.12527   1.00
H1       0.81398    0.45693    0.18731   1.00
O3       0.97869    0.60337    0.13610   1.00
O3       0.84850    0.51000    0.15262   1.00
Si1      1.00879    0.67938    0.14584   1.00
Si1      0.79283    0.44945    0.13806   1.00
C6       1.01976    0.72344    0.12281   1.00
C6       0.94346    0.67844    0.16063   1.00
C6       1.08729    0.70885    0.15852   1.00
C6       0.80804    0.38291    0.13098   1.00
C6       0.71726    0.41574    0.15227   1.00
C6       0.78270    0.48869    0.11631   1.00
C6       1.05610    0.70662    0.10536   1.00
H2       0.96722    0.70308    0.11770   1.00
C6       1.05241    0.80307    0.12242   1.00
H2       0.89776    0.63739    0.15355   1.00
C6       0.93879    0.65890    0.18357   1.00
C6       0.93399    0.74232    0.16012   1.00
H2       1.11646    0.69752    0.14755   1.00
C6       1.13072    0.78724    0.16289   1.00
C6       1.08930    0.67459    0.17905   1.00
C6       0.87625    0.40235    0.11978   1.00
C6       0.79688    0.32682    0.14689   1.00
H2       0.76801    0.35506    0.11980   1.00
H2       0.72603    0.38972    0.16484   1.00
C6       0.70147    0.46892    0.16237   1.00
C6       0.64991    0.36148    0.14172   1.00
H2       0.74762    0.50583    0.12115   1.00
C6       0.84746    0.55442    0.10877   1.00
C6       0.74975    0.44355    0.09704   1.00
H2       1.03011    0.65201    0.10214   1.00
H2       1.10899    0.72304    0.10928   1.00
H2       1.05618    0.73191    0.09122   1.00
H2       1.02964    0.81796    0.11026   1.00
H2       1.04511    0.82349    0.13651   1.00
H2       1.10716    0.82914    0.11941   1.00
H2       0.88903    0.64609    0.18981   1.00
H2       0.94427    0.61431    0.18590   1.00
H2       0.97759    0.70111    0.19249   1.00
H2       0.92652    0.75458    0.14467   1.00
H2       0.88875    0.73324    0.16865   1.00
H2       0.97788    0.78675    0.16679   1.00
H2       1.10081    0.80544    0.17098   1.00
H2       1.17598    0.80010    0.17201   1.00
H2       1.15014    0.81621    0.14895   1.00
H2       1.07962    0.69813    0.19212   1.00
H2       1.05272    0.62053    0.17975   1.00
H2       1.13972    0.68011    0.18123   1.00
H2       0.91824    0.41722    0.13039   1.00
H2       0.87130    0.35881    0.11118   1.00
H2       0.89065    0.44383    0.10903   1.00
H2       0.79888    0.28456    0.13952   1.00
H2       0.83577    0.34622    0.15865   1.00
H2       0.74707    0.30472    0.15417   1.00
H2       0.66051    0.44394    0.17353   1.00
H2       0.74585    0.50831    0.17047   1.00
H2       0.68560    0.49394    0.15126   1.00
H2       0.65557    0.32093    0.13472   1.00
H2       0.60869    0.33723    0.15284   1.00
H2       0.63357    0.38469    0.13012   1.00
H2       0.88788    0.54442    0.10416   1.00
H2       0.83595    0.57773    0.09600   1.00
H2       0.86732    0.59203    0.12084   1.00
H2       0.73674    0.47081    0.08582   1.00
H2       0.78452    0.42968    0.08979   1.00
H2       0.70261    0.39679    0.10068   1.00
C4       0.51432    0.53143    0.16467   1.00
C4       0.54344    0.50388    0.17832   1.00
C3       0.53700    0.60213    0.16307   1.00
C3       0.59378    0.54347    0.19299   1.00
C3       0.45870    0.48612    0.15206   1.00
C3       0.52155    0.43288    0.17737   1.00
C2       0.45055    0.58279    0.13741   1.00
C2       0.59868    0.44408    0.20569   1.00
C3       0.50578    0.62711    0.14990   1.00
C3       0.62113    0.51455    0.20617   1.00
C3       0.42873    0.51246    0.13861   1.00
C3       0.54763    0.40423    0.19137   1.00
H1       0.57702    0.63757    0.17136   1.00
H1       0.61176    0.59438    0.19462   1.00
C5       0.43357    0.41484    0.15291   1.00
C5       0.47338    0.39070    0.16260   1.00
H1       0.52405    0.67872    0.14950   1.00
H1       0.65784    0.54577    0.21636   1.00
H1       0.39012    0.47954    0.12925   1.00
H1       0.52827    0.35262    0.19135   1.00
O3       0.37324    0.37064    0.14334   1.00
O3       0.46168    0.32570    0.15875   1.00
Si1      0.30167    0.33710    0.15598   1.00
Si1      0.51157    0.31609    0.14289   1.00
C6       0.24663    0.29856    0.13514   1.00
C6       0.30073    0.27537    0.17248   1.00
C6       0.28654    0.39840    0.16771   1.00
C6       0.58027    0.38991    0.13204   1.00
C6       0.54345    0.27325    0.15744   1.00
C6       0.45942    0.26023    0.12369   1.00
C6       0.26128    0.34480    0.11595   1.00
H2       0.25894    0.25957    0.13060   1.00
C6       0.16711    0.26007    0.13786   1.00
H2       0.33475    0.26165    0.16473   1.00
C6       0.33079    0.29812    0.19430   1.00
C6       0.23221    0.20679    0.17553   1.00
H2       0.29736    0.43483    0.15543   1.00
C6       0.21182    0.37445    0.17476   1.00
C6       0.33186    0.44061    0.18620   1.00
C6       0.56375    0.43930    0.11995   1.00
C6       0.64474    0.43619    0.14522   1.00
H2       0.59935    0.36835    0.12074   1.00
H2       0.57747    0.31165    0.16828   1.00
C6       0.49004    0.21231    0.17062   1.00
C6       0.58699    0.24728    0.14622   1.00
H2       0.43903    0.20964    0.13039   1.00
C6       0.39549    0.26526    0.11769   1.00
C6       0.49400    0.25848    0.10330   1.00
H2       0.31381    0.36591    0.11074   1.00
H2       0.25265    0.38727    0.11911   1.00
H2       0.22849    0.31573    0.10327   1.00
H2       0.14314    0.21724    0.12728   1.00
H2       0.15097    0.23974    0.15306   1.00
H2       0.14552    0.29272    0.13461   1.00
H2       0.34055    0.26001    0.20129   1.00
H2       0.37935    0.34564    0.19417   1.00
H2       0.29547    0.30428    0.20414   1.00
H2       0.21153    0.18110    0.16110   1.00
H2       0.23965    0.17101    0.18483   1.00
H2       0.19421    0.21533    0.18310   1.00
H2       0.19241    0.32972    0.18458   1.00
H2       0.20823    0.41434    0.18310   1.00
H2       0.17775    0.36249    0.16189   1.00
H2       0.31168    0.41447    0.20061   1.00
H2       0.38417    0.45172    0.18520   1.00
H2       0.33357    0.48967    0.18714   1.00
H2       0.55829    0.47454    0.12996   1.00
H2       0.60500    0.47019    0.10936   1.00
H2       0.51731    0.41199    0.11101   1.00
H2       0.68610    0.47377    0.13572   1.00
H2       0.63463    0.46452    0.15670   1.00
H2       0.66470    0.40696    0.15277   1.00
H2       0.51588    0.19670    0.18158   1.00
H2       0.45804    0.22661    0.17934   1.00
H2       0.45679    0.16796    0.16138   1.00
H2       0.62719    0.28731    0.13706   1.00
H2       0.61202    0.23071    0.15719   1.00
H2       0.55537    0.20387    0.13642   1.00
H2       0.40919    0.31506    0.11143   1.00
H2       0.36387    0.22635    0.10659   1.00
H2       0.36394    0.25701    0.13097   1.00
H2       0.45873    0.21506    0.09398   1.00
H2       0.50987    0.30474    0.09440   1.00
H2       0.53859    0.25306    0.10590   1.00
C4       0.64685    0.80821    0.66755   1.00
C4       0.70492    0.83589    0.65444   1.00
C3       0.60658    0.83929    0.67085   1.00
C3       0.73216    0.90038    0.64479   1.00
C3       0.62814    0.74655    0.67828   1.00
C3       0.73798    0.79738    0.65060   1.00
C2       0.53223    0.75081    0.69508   1.00
C2       0.82347    0.88900    0.62850   1.00
C3       0.55108    0.81163    0.68432   1.00
C3       0.78941    0.92596    0.63202   1.00
C3       0.57120    0.71879    0.69151   1.00
C3       0.79733    0.82535    0.63838   1.00
H1       0.61625    0.88280    0.66351   1.00
H1       0.71147    0.93085    0.64685   1.00
C5       0.66625    0.71288    0.67566   1.00
C5       0.71210    0.73149    0.65909   1.00
H1       0.52413    0.83663    0.68620   1.00
H1       0.80650    0.97264    0.62532   1.00
H1       0.55724    0.67354    0.69867   1.00
H1       0.82293    0.79908    0.63683   1.00
O3       0.65531    0.66021    0.68845   1.00
O3       0.73458    0.68819    0.65246   1.00
Si1      0.70230    0.67584    0.70872   1.00
Si1      0.69901    0.64105    0.63249   1.00
C6       0.65591    0.59382    0.71959   1.00
C6       0.78376    0.69328    0.70072   1.00
C6       0.70184    0.73834    0.72462   1.00
C6       0.63519    0.64991    0.61973   1.00
C6       0.76828    0.66408    0.61609   1.00
C6       0.66710    0.55554    0.63978   1.00
C6       0.57651    0.56200    0.72021   1.00
H2       0.66506    0.56263    0.70881   1.00
C6       0.67570    0.57807    0.74092   1.00
H2       0.77233    0.66646    0.68623   1.00
C6       0.83871    0.76890    0.69596   1.00
C6       0.82195    0.66454    0.71355   1.00
H2       0.64747    0.72135    0.72561   1.00
C6       0.72696    0.74235    0.74699   1.00
C6       0.73826    0.81475    0.71744   1.00
C6       0.57131    0.63806    0.63213   1.00
C6       0.65605    0.71423    0.60618   1.00
H2       0.61591    0.60815    0.60880   1.00
H2       0.78310    0.71596    0.61149   1.00
C6       0.83367    0.66909    0.62586   1.00
C6       0.75437    0.62194    0.59611   1.00
H2       0.71170    0.54901    0.63933   1.00
C6       0.63962    0.53676    0.66190   1.00
C6       0.61229    0.49822    0.62588   1.00
H2       0.55578    0.56051    0.70514   1.00
H2       0.56187    0.59115    0.73016   1.00
H2       0.55138    0.50942    0.72570   1.00
H2       0.66513    0.52539    0.74140   1.00
H2       0.72930    0.61089    0.74456   1.00
H2       0.64614    0.58322    0.75318   1.00
H2       0.88081    0.77111    0.68721   1.00
H2       0.81815    0.79455    0.68688   1.00
H2       0.86017    0.79796    0.70988   1.00
H2       0.79126    0.60932    0.71528   1.00
H2       0.86930    0.67439    0.70616   1.00
H2       0.83520    0.68809    0.72856   1.00
H2       0.77762    0.74769    0.74741   1.00
H2       0.72942    0.78543    0.75527   1.00
H2       0.69192    0.69744    0.75561   1.00
H2       0.79224    0.84226    0.72147   1.00
H2       0.73523    0.82050    0.70123   1.00
H2       0.71475    0.84136    0.72471   1.00
H2       0.58096    0.68358    0.64046   1.00
H2       0.52832    0.62517    0.62199   1.00
H2       0.55467    0.59627    0.64290   1.00
H2       0.61264    0.70770    0.59715   1.00
H2       0.67319    0.76032    0.61513   1.00
H2       0.69614    0.72298    0.59540   1.00
H2       0.87708    0.69465    0.61552   1.00
H2       0.84786    0.69910    0.63983   1.00
H2       0.82682    0.61897    0.62939   1.00
H2       0.71050    0.61749    0.58789   1.00
H2       0.79822    0.64699    0.58589   1.00
H2       0.74555    0.57075    0.59918   1.00
H2       0.59598    0.54375    0.66455   1.00
H2       0.62459    0.48404    0.66557   1.00
H2       0.67936    0.56897    0.67255   1.00
H2       0.60449    0.44821    0.63024   1.00
H2       0.56309    0.49605    0.62700   1.00
H2       0.62784    0.50583    0.61001   1.00
C4       0.16146    0.35037    0.66858   1.00
C4       0.13030    0.29259    0.65537   1.00
C3       0.20747    0.35798    0.68434   1.00
C3       0.13715    0.23397    0.65777   1.00
C3       0.14526    0.40336    0.66623   1.00
C3       0.09006    0.29286    0.63875   1.00
C2       0.21968    0.46717    0.69529   1.00
C2       0.06441    0.17713    0.62829   1.00
C3       0.23550    0.41455    0.69741   1.00
C3       0.10566    0.17808    0.64450   1.00
C3       0.17507    0.46063    0.67933   1.00
C3       0.05638    0.23483    0.62607   1.00
H1       0.22216    0.32275    0.68675   1.00
H1       0.16487    0.22996    0.66931   1.00
C5       0.09964    0.39892    0.65077   1.00
C5       0.08307    0.35067    0.63495   1.00
H1       0.26810    0.41704    0.70863   1.00
H1       0.11289    0.13733    0.64687   1.00
H1       0.16446    0.49913    0.67711   1.00
H1       0.02427    0.23406    0.61504   1.00
O3       0.07540    0.44392    0.65067   1.00
O3       0.05611    0.35762    0.61689   1.00
Si1      0.00303    0.42307    0.66173   1.00
Si1      0.10642    0.38997    0.59733   1.00
C6       0.00831    0.50327    0.65952   1.00
C6       -0.06262   0.36151    0.64636   1.00
C6       0.00017    0.39951    0.68740   1.00
C6       0.19273    0.41191    0.59998   1.00
C6       0.06720    0.32613    0.57883   1.00
C6       0.10109    0.46138    0.58933   1.00
C6       0.07805    0.56649    0.66588   1.00
H2       0.00481    0.50795    0.64314   1.00
C6       -0.04790   0.51623    0.66894   1.00
H2       -0.03839   0.37271    0.63146   1.00
C6       -0.08755   0.28447    0.65039   1.00
C6       -0.12928   0.36531    0.64358   1.00
H2       0.04863    0.44050    0.69322   1.00
C6       -0.05671   0.39908    0.70105   1.00
C6       -0.00213   0.33076    0.69277   1.00
C6       0.23586    0.46354    0.61704   1.00
C6       0.21169    0.35419    0.60044   1.00
H2       0.21500    0.43850    0.58577   1.00
H2       0.07530    0.28525    0.58429   1.00
C6       -0.01196   0.29336    0.57671   1.00
C6       0.09707    0.34342    0.55686   1.00
H2       0.05431    0.43955    0.58037   1.00
C6       0.09083    0.50332    0.60632   1.00
C6       0.15887    0.51469    0.57524   1.00
H2       0.12062    0.56825    0.65756   1.00
H2       0.08769    0.56547    0.68209   1.00
H2       0.07889    0.61424    0.66261   1.00
H2       -0.05459   0.55222    0.65953   1.00
H2       -0.09728   0.47007    0.67018   1.00
H2       -0.03408   0.53880    0.68406   1.00
H2       -0.11690   0.25318    0.63749   1.00
H2       -0.04524   0.27513    0.65247   1.00
H2       -0.12043   0.26593    0.66373   1.00
H2       -0.11814   0.41499    0.63780   1.00
H2       -0.16354   0.32772    0.63252   1.00
H2       -0.15715   0.35530    0.65786   1.00
H2       -0.10714   0.36775    0.69434   1.00
H2       -0.05758   0.37934    0.71627   1.00
H2       -0.04789   0.45034    0.70340   1.00
H2       -0.05417   0.28765    0.69308   1.00
H2       0.02640    0.31763    0.68232   1.00
H2       0.01964    0.33425    0.70784   1.00
H2       0.22837    0.43841    0.63167   1.00
H2       0.29026    0.48783    0.61354   1.00
H2       0.22381    0.50418    0.61872   1.00
H2       0.26692    0.37593    0.59923   1.00
H2       0.19585    0.32495    0.61445   1.00
H2       0.18942    0.31889    0.58776   1.00
H2       -0.03291   0.24704    0.56749   1.00
H2       -0.03721   0.27843    0.59147   1.00
H2       -0.02605   0.32799    0.56955   1.00
H2       0.15225    0.36483    0.55680   1.00
H2       0.07532    0.29723    0.54755   1.00
H2       0.08530    0.37944    0.54943   1.00
H2       0.13357    0.52593    0.61688   1.00
H2       0.08402    0.54413    0.60001   1.00
H2       0.04513    0.47035    0.61493   1.00
H2       0.14456    0.55039    0.56887   1.00
H2       0.20659    0.54450    0.58355   1.00
H2       0.16860    0.49026    0.56244   1.00
C4       0.18898    0.83844    0.66851   1.00
C4       0.16229    0.86957    0.65532   1.00
C3       0.14970    0.78997    0.68366   1.00
C3       0.09561    0.86009    0.65716   1.00
C3       0.25907    0.85721    0.66682   1.00
C3       0.20404    0.91256    0.63929   1.00
C2       0.24757    0.78035    0.69527   1.00
C2       0.11262    0.93556    0.62831   1.00
C3       0.17823    0.76200    0.69675   1.00
C3       0.07120    0.89165    0.64392   1.00
C3       0.28657    0.82744    0.67992   1.00
C3       0.17950    0.94618    0.62666   1.00
H1       0.09916    0.77340    0.68557   1.00
H1       0.06296    0.83033    0.66825   1.00
C5       0.30116    0.90536    0.65199   1.00
C5       0.27021    0.92232    0.63605   1.00
H1       0.14746    0.72755    0.70751   1.00
H1       0.02233    0.88246    0.64586   1.00
H1       0.33643    0.83997    0.67815   1.00
H1       0.21153    0.98018    0.61609   1.00
O3       0.37072    0.93174    0.65259   1.00
O3       0.30591    0.95222    0.61845   1.00
Si1      0.41901    1.00326    0.66453   1.00
Si1      0.29200    0.90463    0.59843   1.00
C6       0.49575    1.00118    0.66287   1.00
C6       0.42252    1.06961    0.64964   1.00
C6       0.39465    1.00215    0.69003   1.00
C6       0.22948    0.81730    0.60000   1.00
C6       0.26771    0.94439    0.58002   1.00
C6       0.37091    0.91373    0.59107   1.00
C6       0.49103    0.93182    0.66871   1.00
H2       0.50598    1.00692    0.64659   1.00
C6       0.56284    1.05773    0.67320   1.00
H2       0.41204    1.04720    0.63449   1.00
C6       0.36801    1.09158    0.65343   1.00
C6       0.49202    1.13793    0.64786   1.00
H2       0.38820    0.95367    0.69547   1.00
C6       0.44822    1.05835    0.70449   1.00
C6       0.32624    1.00124    0.69490   1.00
C6       0.23769    0.77328    0.61683   1.00
C6       0.15208    0.79576    0.59974   1.00
H2       0.23649    0.79737    0.58569   1.00
H2       0.21747    0.93393    0.58504   1.00
C6       0.31212    1.02396    0.57879   1.00
C6       0.25877    0.91731    0.55777   1.00
H2       0.39560    0.96160    0.58263   1.00
C6       0.42156    0.92369    0.60852   1.00
C6       0.37034    0.85866    0.57657   1.00
H2       0.45216    0.88958    0.65980   1.00
H2       0.47855    0.92000    0.68475   1.00
H2       0.53922    0.93317    0.66580   1.00
H2       0.60720    1.06705    0.66417   1.00
H2       0.56405    1.10609    0.67478   1.00
H2       0.57042    1.04268    0.68828   1.00
H2       0.36649    1.12184    0.64072   1.00
H2       0.31681    1.04792    0.65482   1.00
H2       0.37969    1.12271    0.66709   1.00
H2       0.53240    1.12918    0.64231   1.00
H2       0.48868    1.17272    0.63701   1.00
H2       0.50737    1.16418    0.66245   1.00
H2       0.46655    1.10931    0.69827   1.00
H2       0.42711    1.05665    0.71955   1.00
H2       0.49150    1.05104    0.70711   1.00
H2       0.33328    1.05253    0.69562   1.00
H2       0.28622    0.97298    0.68394   1.00
H2       0.30661    0.97738    0.70966   1.00
H2       0.21764    0.77817    0.63136   1.00
H2       0.20957    0.71925    0.61273   1.00
H2       0.29066    0.78687    0.61899   1.00
H2       0.12027    0.74052    0.59790   1.00
H2       0.13609    0.80907    0.61374   1.00
H2       0.13952    0.81863    0.58711   1.00
H2       0.28664    1.04466    0.56952   1.00
H2       0.31984    1.04730    0.59378   1.00
H2       0.36207    1.04049    0.57210   1.00
H2       0.22653    0.86198    0.55707   1.00
H2       0.23419    0.93884    0.54842   1.00
H2       0.30788    0.93156    0.55080   1.00
H2       0.40141    0.87975    0.61863   1.00
H2       0.47057    0.93293    0.60264   1.00
H2       0.43169    0.96790    0.61753   1.00
H2       0.42149    0.87535    0.57070   1.00
H2       0.35293    0.81021    0.58442   1.00
H2       0.33752    0.84939    0.56346   1.00
