data_IRMOF10_interpen_symm_ligand1cp_symm_e

_audit_creation_method             'generated by an auxiliary program of Tobunporous'

_symmetry_space_group_name_H-M     'P 1'
_symmetry_Int_Tables_number        1
_symmetry_cell_setting             triclinic

_cell_length_a                    22.6523
_cell_length_b                    22.6523
_cell_length_c                    65.9502
_cell_angle_alpha                 90.0000
_cell_angle_beta                  90.0000
_cell_angle_gamma                 120.0000

loop_
_atom_site_label
_atom_site_fract_x
_atom_site_fract_y
_atom_site_fract_z
_atom_site_occupancy
O1       0.00000    0.00000    0.57470   1.00
Zn      0.00000    0.00000    0.54560   1.00
Zn      0.94843    0.04287    0.58357   1.00
Zn      0.09443    0.05157    0.58357   1.00
Zn      0.95713    0.90557    0.58357   1.00
O2       0.93860    0.02610    0.53560   1.00
O2       0.08750    0.06140    0.53560   1.00
O2       0.97390    0.91250    0.53560   1.00
O2       0.91300    0.07160    0.56150   1.00
O2       0.00463    0.12027    0.60077   1.00
O2       0.87413    0.98077    0.60037   1.00
O2       0.15860    0.08700    0.56150   1.00
O2       0.10663    0.12587    0.60037   1.00
O2       0.11563    0.99537    0.60077   1.00
O2       0.92840    0.84140    0.56150   1.00
O2       0.87973    0.88437    0.60077   1.00
O2       0.01923    0.89337    0.60037   1.00
C1       0.91390    0.06020    0.54330   1.00
C1       0.14630    0.08610    0.54330   1.00
C1       0.93980    0.85370    0.54330   1.00
C1       0.06663    0.14397    0.60637   1.00
C1       0.85603    0.92267    0.60637   1.00
C1       0.07733    0.93337    0.60637   1.00
O1       0.00000    0.00000    0.92530   1.00
Zn      0.00000    0.00000    0.95440   1.00
Zn      0.04287    0.94843    0.91643   1.00
Zn      0.05157    0.09443    0.91643   1.00
Zn      0.90557    0.95713    0.91643   1.00
O2       0.02610    0.93860    0.96440   1.00
O2       0.06140    0.08750    0.96440   1.00
O2       0.91250    0.97390    0.96440   1.00
O2       0.07160    0.91300    0.93850   1.00
O2       0.12027    0.00463    0.89923   1.00
O2       0.98077    0.87413    0.89963   1.00
O2       0.08700    0.15860    0.93850   1.00
O2       0.12587    0.10663    0.89963   1.00
O2       0.99537    0.11563    0.89923   1.00
O2       0.84140    0.92840    0.93850   1.00
O2       0.88437    0.87973    0.89923   1.00
O2       0.89337    0.01923    0.89963   1.00
C1       0.06020    0.91390    0.95670   1.00
C1       0.08610    0.14630    0.95670   1.00
C1       0.85370    0.93980    0.95670   1.00
C1       0.14397    0.06663    0.89363   1.00
C1       0.92267    0.85603    0.89363   1.00
C1       0.93337    0.07733    0.89363   1.00
O1       0.00000    0.00000    0.42530   1.00
Zn      0.00000    0.00000    0.45440   1.00
Zn      0.05157    0.95713    0.41643   1.00
Zn      0.90557    0.94843    0.41643   1.00
Zn      0.04287    0.09443    0.41643   1.00
O2       0.06140    0.97390    0.46440   1.00
O2       0.91250    0.93860    0.46440   1.00
O2       0.02610    0.08750    0.46440   1.00
O2       0.08700    0.92840    0.43850   1.00
O2       0.99537    0.87973    0.39923   1.00
O2       0.12587    0.01923    0.39963   1.00
O2       0.84140    0.91300    0.43850   1.00
O2       0.89337    0.87413    0.39963   1.00
O2       0.88437    0.00463    0.39923   1.00
O2       0.07160    0.15860    0.43850   1.00
O2       0.12027    0.11563    0.39923   1.00
O2       0.98077    0.10663    0.39963   1.00
C1       0.08610    0.93980    0.45670   1.00
C1       0.85370    0.91390    0.45670   1.00
C1       0.06020    0.14630    0.45670   1.00
C1       0.93337    0.85603    0.39363   1.00
C1       0.14397    0.07733    0.39363   1.00
C1       0.92267    0.06663    0.39363   1.00
O1       0.00000    0.00000    0.07470   1.00
Zn      0.00000    0.00000    0.04560   1.00
Zn      0.95713    0.05157    0.08357   1.00
Zn      0.94843    0.90557    0.08357   1.00
Zn      0.09443    0.04287    0.08357   1.00
O2       0.97390    0.06140    0.03560   1.00
O2       0.93860    0.91250    0.03560   1.00
O2       0.08750    0.02610    0.03560   1.00
O2       0.92840    0.08700    0.06150   1.00
O2       0.87973    0.99537    0.10077   1.00
O2       0.01923    0.12587    0.10037   1.00
O2       0.91300    0.84140    0.06150   1.00
O2       0.87413    0.89337    0.10037   1.00
O2       0.00463    0.88437    0.10077   1.00
O2       0.15860    0.07160    0.06150   1.00
O2       0.11563    0.12027    0.10077   1.00
O2       0.10663    0.98077    0.10037   1.00
C1       0.93980    0.08610    0.04330   1.00
C1       0.91390    0.85370    0.04330   1.00
C1       0.14630    0.06020    0.04330   1.00
C1       0.85603    0.93337    0.10637   1.00
C1       0.07733    0.14397    0.10637   1.00
C1       0.06663    0.92267    0.10637   1.00
O1       0.66667    0.33333    0.90803   1.00
Zn      0.66667    0.33333    0.87893   1.00
Zn      0.61510    0.37620    0.91690   1.00
Zn      0.76110    0.38490    0.91690   1.00
Zn      0.62380    0.23890    0.91690   1.00
O2       0.60527    0.35943    0.86893   1.00
O2       0.75417    0.39473    0.86893   1.00
O2       0.64057    0.24583    0.86893   1.00
O2       0.57967    0.40493    0.89483   1.00
O2       0.67130    0.45360    0.93410   1.00
O2       0.54080    0.31410    0.93370   1.00
O2       0.82527    0.42033    0.89483   1.00
O2       0.77330    0.45920    0.93370   1.00
O2       0.78230    0.32870    0.93410   1.00
O2       0.59507    0.17473    0.89483   1.00
O2       0.54640    0.21770    0.93410   1.00
O2       0.68590    0.22670    0.93370   1.00
C1       0.58057    0.39353    0.87663   1.00
C1       0.81297    0.41943    0.87663   1.00
C1       0.60647    0.18703    0.87663   1.00
C1       0.73330    0.47730    0.93970   1.00
C1       0.52270    0.25600    0.93970   1.00
C1       0.74400    0.26670    0.93970   1.00
O1       0.66667    0.33333    0.25863   1.00
Zn      0.66667    0.33333    0.28773   1.00
Zn      0.70953    0.28177    0.24977   1.00
Zn      0.71823    0.42777    0.24977   1.00
Zn      0.57223    0.29047    0.24977   1.00
O2       0.69277    0.27193    0.29773   1.00
O2       0.72807    0.42083    0.29773   1.00
O2       0.57917    0.30723    0.29773   1.00
O2       0.73827    0.24633    0.27183   1.00
O2       0.78693    0.33797    0.23257   1.00
O2       0.64743    0.20747    0.23297   1.00
O2       0.75367    0.49193    0.27183   1.00
O2       0.79253    0.43997    0.23297   1.00
O2       0.66203    0.44897    0.23257   1.00
O2       0.50807    0.26173    0.27183   1.00
O2       0.55103    0.21307    0.23257   1.00
O2       0.56003    0.35257    0.23297   1.00
C1       0.72687    0.24723    0.29003   1.00
C1       0.75277    0.47963    0.29003   1.00
C1       0.52037    0.27313    0.29003   1.00
C1       0.81063    0.39997    0.22697   1.00
C1       0.58933    0.18937    0.22697   1.00
C1       0.60003    0.41067    0.22697   1.00
O1       0.66667    0.33333    0.75863   1.00
Zn      0.66667    0.33333    0.78773   1.00
Zn      0.71823    0.29047    0.74977   1.00
Zn      0.57223    0.28177    0.74977   1.00
Zn      0.70953    0.42777    0.74977   1.00
O2       0.72807    0.30723    0.79773   1.00
O2       0.57917    0.27193    0.79773   1.00
O2       0.69277    0.42083    0.79773   1.00
O2       0.75367    0.26173    0.77183   1.00
O2       0.66203    0.21307    0.73257   1.00
O2       0.79253    0.35257    0.73297   1.00
O2       0.50807    0.24633    0.77183   1.00
O2       0.56003    0.20747    0.73297   1.00
O2       0.55103    0.33797    0.73257   1.00
O2       0.73827    0.49193    0.77183   1.00
O2       0.78693    0.44897    0.73257   1.00
O2       0.64743    0.43997    0.73297   1.00
C1       0.75277    0.27313    0.79003   1.00
C1       0.52037    0.24723    0.79003   1.00
C1       0.72687    0.47963    0.79003   1.00
C1       0.60003    0.18937    0.72697   1.00
C1       0.81063    0.41067    0.72697   1.00
C1       0.58933    0.39997    0.72697   1.00
O1       0.66667    0.33333    0.40803   1.00
Zn      0.66667    0.33333    0.37893   1.00
Zn      0.62380    0.38490    0.41690   1.00
Zn      0.61510    0.23890    0.41690   1.00
Zn      0.76110    0.37620    0.41690   1.00
O2       0.64057    0.39473    0.36893   1.00
O2       0.60527    0.24583    0.36893   1.00
O2       0.75417    0.35943    0.36893   1.00
O2       0.59507    0.42033    0.39483   1.00
O2       0.54640    0.32870    0.43410   1.00
O2       0.68590    0.45920    0.43370   1.00
O2       0.57967    0.17473    0.39483   1.00
O2       0.54080    0.22670    0.43370   1.00
O2       0.67130    0.21770    0.43410   1.00
O2       0.82527    0.40493    0.39483   1.00
O2       0.78230    0.45360    0.43410   1.00
O2       0.77330    0.31410    0.43370   1.00
C1       0.60647    0.41943    0.37663   1.00
C1       0.58057    0.18703    0.37663   1.00
C1       0.81297    0.39353    0.37663   1.00
C1       0.52270    0.26670    0.43970   1.00
C1       0.74400    0.47730    0.43970   1.00
C1       0.73330    0.25600    0.43970   1.00
O1       0.33333    0.66667    0.24137   1.00
Zn      0.33333    0.66667    0.21227   1.00
Zn      0.28177    0.70953    0.25023   1.00
Zn      0.42777    0.71823    0.25023   1.00
Zn      0.29047    0.57223    0.25023   1.00
O2       0.27193    0.69277    0.20227   1.00
O2       0.42083    0.72807    0.20227   1.00
O2       0.30723    0.57917    0.20227   1.00
O2       0.24633    0.73827    0.22817   1.00
O2       0.33797    0.78693    0.26743   1.00
O2       0.20747    0.64743    0.26703   1.00
O2       0.49193    0.75367    0.22817   1.00
O2       0.43997    0.79253    0.26703   1.00
O2       0.44897    0.66203    0.26743   1.00
O2       0.26173    0.50807    0.22817   1.00
O2       0.21307    0.55103    0.26743   1.00
O2       0.35257    0.56003    0.26703   1.00
C1       0.24723    0.72687    0.20997   1.00
C1       0.47963    0.75277    0.20997   1.00
C1       0.27313    0.52037    0.20997   1.00
C1       0.39997    0.81063    0.27303   1.00
C1       0.18937    0.58933    0.27303   1.00
C1       0.41067    0.60003    0.27303   1.00
O1       0.33333    0.66667    0.59197   1.00
Zn      0.33333    0.66667    0.62107   1.00
Zn      0.37620    0.61510    0.58310   1.00
Zn      0.38490    0.76110    0.58310   1.00
Zn      0.23890    0.62380    0.58310   1.00
O2       0.35943    0.60527    0.63107   1.00
O2       0.39473    0.75417    0.63107   1.00
O2       0.24583    0.64057    0.63107   1.00
O2       0.40493    0.57967    0.60517   1.00
O2       0.45360    0.67130    0.56590   1.00
O2       0.31410    0.54080    0.56630   1.00
O2       0.42033    0.82527    0.60517   1.00
O2       0.45920    0.77330    0.56630   1.00
O2       0.32870    0.78230    0.56590   1.00
O2       0.17473    0.59507    0.60517   1.00
O2       0.21770    0.54640    0.56590   1.00
O2       0.22670    0.68590    0.56630   1.00
C1       0.39353    0.58057    0.62337   1.00
C1       0.41943    0.81297    0.62337   1.00
C1       0.18703    0.60647    0.62337   1.00
C1       0.47730    0.73330    0.56030   1.00
C1       0.25600    0.52270    0.56030   1.00
C1       0.26670    0.74400    0.56030   1.00
O1       0.33333    0.66667    0.09197   1.00
Zn      0.33333    0.66667    0.12107   1.00
Zn      0.38490    0.62380    0.08310   1.00
Zn      0.23890    0.61510    0.08310   1.00
Zn      0.37620    0.76110    0.08310   1.00
O2       0.39473    0.64057    0.13107   1.00
O2       0.24583    0.60527    0.13107   1.00
O2       0.35943    0.75417    0.13107   1.00
O2       0.42033    0.59507    0.10517   1.00
O2       0.32870    0.54640    0.06590   1.00
O2       0.45920    0.68590    0.06630   1.00
O2       0.17473    0.57967    0.10517   1.00
O2       0.22670    0.54080    0.06630   1.00
O2       0.21770    0.67130    0.06590   1.00
O2       0.40493    0.82527    0.10517   1.00
O2       0.45360    0.78230    0.06590   1.00
O2       0.31410    0.77330    0.06630   1.00
C1       0.41943    0.60647    0.12337   1.00
C1       0.18703    0.58057    0.12337   1.00
C1       0.39353    0.81297    0.12337   1.00
C1       0.26670    0.52270    0.06030   1.00
C1       0.47730    0.74400    0.06030   1.00
C1       0.25600    0.73330    0.06030   1.00
O1       0.33333    0.66667    0.74137   1.00
Zn      0.33333    0.66667    0.71227   1.00
Zn      0.29047    0.71823    0.75023   1.00
Zn      0.28177    0.57223    0.75023   1.00
Zn      0.42777    0.70953    0.75023   1.00
O2       0.30723    0.72807    0.70227   1.00
O2       0.27193    0.57917    0.70227   1.00
O2       0.42083    0.69277    0.70227   1.00
O2       0.26173    0.75367    0.72817   1.00
O2       0.21307    0.66203    0.76743   1.00
O2       0.35257    0.79253    0.76703   1.00
O2       0.24633    0.50807    0.72817   1.00
O2       0.20747    0.56003    0.76703   1.00
O2       0.33797    0.55103    0.76743   1.00
O2       0.49193    0.73827    0.72817   1.00
O2       0.44897    0.78693    0.76743   1.00
O2       0.43997    0.64743    0.76703   1.00
C1       0.27313    0.75277    0.70997   1.00
C1       0.24723    0.52037    0.70997   1.00
C1       0.47963    0.72687    0.70997   1.00
C1       0.18937    0.60003    0.77303   1.00
C1       0.41067    0.81063    0.77303   1.00
C1       0.39997    0.58933    0.77303   1.00
C2       0.77075    0.52466    0.45849   1.00
C3       0.73278    0.53682    0.47130   1.00
H1       0.68580    0.50795    0.47120   1.00
C3       0.83943    0.56638    0.45928   1.00
H1       0.86703    0.55817    0.45066   1.00
C4       0.76032    0.59039    0.48477   1.00
C5       0.71695    0.60416    0.49952   1.00
H2       0.70966    0.57792    0.51165   1.00
H2       0.67382    0.59144    0.49335   1.00
H2       0.73989    0.65174    0.50284   1.00
C4       0.86935    0.62065    0.47258   1.00
C5       0.94801    0.66702    0.47366   1.00
H2       0.96200    0.70631    0.46527   1.00
H2       0.96948    0.64207    0.46913   1.00
H2       0.96124    0.68139    0.48742   1.00
C6       0.82982    0.63252    0.48580   1.00
C6       0.86158    0.68998    0.50038   1.00
C4       0.87774    0.67977    0.51985   1.00
C5       0.87117    0.61338    0.52545   1.00
H2       0.82671    0.58418    0.53102   1.00
H2       0.90507    0.62050    0.53528   1.00
H2       0.87735    0.59248    0.51352   1.00
C4       0.87291    0.75326    0.49393   1.00
C5       0.85513    0.76722    0.47277   1.00
H2       0.89285    0.77908    0.46374   1.00
H2       0.84594    0.80418    0.47340   1.00
H2       0.81570    0.72709    0.46782   1.00
C3       0.90433    0.73382    0.53336   1.00
H1       0.91626    0.72745    0.54635   1.00
C3       0.89914    0.80637    0.50905   1.00
H1       0.90631    0.84912    0.50543   1.00
C2       0.91370    0.79640    0.52810   1.00
C2       0.47534    0.24609    0.45849   1.00
C3       0.46318    0.19596    0.47130   1.00
H1       0.49205    0.17785    0.47120   1.00
C3       0.43362    0.27305    0.45928   1.00
H1       0.44183    0.30886    0.45066   1.00
C4       0.40961    0.16993    0.48477   1.00
C5       0.39584    0.11279    0.49952   1.00
H2       0.42208    0.13174    0.51165   1.00
H2       0.40856    0.08238    0.49335   1.00
H2       0.34826    0.08815    0.50284   1.00
C4       0.37935    0.24870    0.47258   1.00
C5       0.33298    0.28099    0.47366   1.00
H2       0.29369    0.25569    0.46527   1.00
H2       0.35793    0.32741    0.46913   1.00
H2       0.31861    0.27985    0.48742   1.00
C6       0.36748    0.19730    0.48580   1.00
C6       0.31002    0.17160    0.50038   1.00
C4       0.32023    0.19797    0.51985   1.00
C5       0.38662    0.25779    0.52545   1.00
H2       0.41582    0.24253    0.53102   1.00
H2       0.37950    0.28457    0.53528   1.00
H2       0.40752    0.28487    0.51352   1.00
C4       0.24674    0.11965    0.49393   1.00
C5       0.23278    0.08791    0.47277   1.00
H2       0.22092    0.11377    0.46374   1.00
H2       0.19582    0.04176    0.47340   1.00
H2       0.27291    0.08861    0.46782   1.00
C3       0.26618    0.17051    0.53336   1.00
H1       0.27255    0.18881    0.54635   1.00
C3       0.19363    0.09277    0.50905   1.00
H1       0.15088    0.05719    0.50543   1.00
C2       0.20360    0.11730    0.52810   1.00
C2       0.75391    0.22925    0.45849   1.00
C3       0.80404    0.26722    0.47130   1.00
H1       0.82215    0.31420    0.47120   1.00
C3       0.72695    0.16057    0.45928   1.00
H1       0.69114    0.13297    0.45066   1.00
C4       0.83007    0.23968    0.48477   1.00
C5       0.88721    0.28305    0.49952   1.00
H2       0.86826    0.29034    0.51165   1.00
H2       0.91762    0.32618    0.49335   1.00
H2       0.91185    0.26011    0.50284   1.00
C4       0.75130    0.13065    0.47258   1.00
C5       0.71901    0.05199    0.47366   1.00
H2       0.74431    0.03800    0.46527   1.00
H2       0.67259    0.03052    0.46913   1.00
H2       0.72015    0.03876    0.48742   1.00
C6       0.80270    0.17018    0.48580   1.00
C6       0.82840    0.13842    0.50038   1.00
C4       0.80203    0.12226    0.51985   1.00
C5       0.74221    0.12883    0.52545   1.00
H2       0.75747    0.17329    0.53102   1.00
H2       0.71543    0.09493    0.53528   1.00
H2       0.71513    0.12265    0.51352   1.00
C4       0.88035    0.12709    0.49393   1.00
C5       0.91209    0.14487    0.47277   1.00
H2       0.88623    0.10715    0.46374   1.00
H2       0.95824    0.15406    0.47340   1.00
H2       0.91139    0.18430    0.46782   1.00
C3       0.82949    0.09567    0.53336   1.00
H1       0.81119    0.08374    0.54635   1.00
C3       0.90723    0.10086    0.50905   1.00
H1       0.94281    0.09369    0.50543   1.00
C2       0.88270    0.08630    0.52810   1.00
C2       0.52466    0.77075    0.04151   1.00
C3       0.53682    0.73278    0.02870   1.00
H1       0.50795    0.68580    0.02880   1.00
C3       0.56638    0.83943    0.04072   1.00
H1       0.55817    0.86703    0.04934   1.00
C4       0.59039    0.76032    0.01523   1.00
C5       0.60416    0.71695    0.00048   1.00
H2       0.57792    0.70966    0.98835   1.00
H2       0.59144    0.67382    0.00665   1.00
H2       0.65174    0.73989    0.99716   1.00
C4       0.62065    0.86935    0.02742   1.00
C5       0.66702    0.94801    0.02634   1.00
H2       0.70631    0.96200    0.03473   1.00
H2       0.64207    0.96948    0.03087   1.00
H2       0.68139    0.96124    0.01258   1.00
C6       0.63252    0.82982    0.01420   1.00
C6       0.68998    0.86158    0.99962   1.00
C4       0.67977    0.87774    0.98015   1.00
C5       0.61338    0.87117    0.97455   1.00
H2       0.58418    0.82671    0.96898   1.00
H2       0.62050    0.90507    0.96472   1.00
H2       0.59248    0.87735    0.98648   1.00
C4       0.75326    0.87291    0.00607   1.00
C5       0.76722    0.85513    0.02723   1.00
H2       0.77908    0.89285    0.03626   1.00
H2       0.80418    0.84594    0.02660   1.00
H2       0.72709    0.81570    0.03218   1.00
C3       0.73382    0.90433    0.96664   1.00
H1       0.72745    0.91626    0.95365   1.00
C3       0.80637    0.89914    0.99095   1.00
H1       0.84912    0.90631    0.99457   1.00
C2       0.79640    0.91370    0.97190   1.00
C2       0.24609    0.47534    0.04151   1.00
C3       0.19596    0.46318    0.02870   1.00
H1       0.17785    0.49205    0.02880   1.00
C3       0.27305    0.43362    0.04072   1.00
H1       0.30886    0.44183    0.04934   1.00
C4       0.16993    0.40961    0.01523   1.00
C5       0.11279    0.39584    0.00048   1.00
H2       0.13174    0.42208    0.98835   1.00
H2       0.08238    0.40856    0.00665   1.00
H2       0.08815    0.34826    0.99716   1.00
C4       0.24870    0.37935    0.02742   1.00
C5       0.28099    0.33298    0.02634   1.00
H2       0.25569    0.29369    0.03473   1.00
H2       0.32741    0.35793    0.03087   1.00
H2       0.27985    0.31861    0.01258   1.00
C6       0.19730    0.36748    0.01420   1.00
C6       0.17160    0.31002    0.99962   1.00
C4       0.19797    0.32023    0.98015   1.00
C5       0.25779    0.38662    0.97455   1.00
H2       0.24253    0.41582    0.96898   1.00
H2       0.28457    0.37950    0.96472   1.00
H2       0.28487    0.40752    0.98648   1.00
C4       0.11965    0.24674    0.00607   1.00
C5       0.08791    0.23278    0.02723   1.00
H2       0.11377    0.22092    0.03626   1.00
H2       0.04176    0.19582    0.02660   1.00
H2       0.08861    0.27291    0.03218   1.00
C3       0.17051    0.26618    0.96664   1.00
H1       0.18881    0.27255    0.95365   1.00
C3       0.09277    0.19363    0.99095   1.00
H1       0.05719    0.15088    0.99457   1.00
C2       0.11730    0.20360    0.97190   1.00
C2       0.22925    0.75391    0.04151   1.00
C3       0.26722    0.80404    0.02870   1.00
H1       0.31420    0.82215    0.02880   1.00
C3       0.16057    0.72695    0.04072   1.00
H1       0.13297    0.69114    0.04934   1.00
C4       0.23968    0.83007    0.01523   1.00
C5       0.28305    0.88721    0.00048   1.00
H2       0.29034    0.86826    0.98835   1.00
H2       0.32618    0.91762    0.00665   1.00
H2       0.26011    0.91185    0.99716   1.00
C4       0.13065    0.75130    0.02742   1.00
C5       0.05199    0.71901    0.02634   1.00
H2       0.03800    0.74431    0.03473   1.00
H2       0.03052    0.67259    0.03087   1.00
H2       0.03876    0.72015    0.01258   1.00
C6       0.17018    0.80270    0.01420   1.00
C6       0.13842    0.82840    0.99962   1.00
C4       0.12226    0.80203    0.98015   1.00
C5       0.12883    0.74221    0.97455   1.00
H2       0.17329    0.75747    0.96898   1.00
H2       0.09493    0.71543    0.96472   1.00
H2       0.12265    0.71513    0.98648   1.00
C4       0.12709    0.88035    0.00607   1.00
C5       0.14487    0.91209    0.02723   1.00
H2       0.10715    0.88623    0.03626   1.00
H2       0.15406    0.95824    0.02660   1.00
H2       0.18430    0.91139    0.03218   1.00
C3       0.09567    0.82949    0.96664   1.00
H1       0.08374    0.81119    0.95365   1.00
C3       0.10086    0.90723    0.99095   1.00
H1       0.09369    0.94281    0.99457   1.00
C2       0.08630    0.88270    0.97190   1.00
C2       0.22925    0.47534    0.54151   1.00
C3       0.26722    0.46318    0.52870   1.00
H1       0.31420    0.49205    0.52880   1.00
C3       0.16057    0.43362    0.54072   1.00
H1       0.13297    0.44183    0.54934   1.00
C4       0.23968    0.40961    0.51523   1.00
C5       0.28305    0.39584    0.50048   1.00
H2       0.29034    0.42208    0.48835   1.00
H2       0.32618    0.40856    0.50665   1.00
H2       0.26011    0.34826    0.49716   1.00
C4       0.13065    0.37935    0.52742   1.00
C5       0.05199    0.33298    0.52634   1.00
H2       0.03800    0.29369    0.53473   1.00
H2       0.03052    0.35793    0.53087   1.00
H2       0.03876    0.31861    0.51258   1.00
C6       0.17018    0.36748    0.51420   1.00
C6       0.13842    0.31002    0.49962   1.00
C4       0.12226    0.32023    0.48015   1.00
C5       0.12883    0.38662    0.47455   1.00
H2       0.17329    0.41582    0.46898   1.00
H2       0.09493    0.37950    0.46472   1.00
H2       0.12265    0.40752    0.48648   1.00
C4       0.12709    0.24674    0.50607   1.00
C5       0.14487    0.23278    0.52723   1.00
H2       0.10715    0.22092    0.53626   1.00
H2       0.15406    0.19582    0.52660   1.00
H2       0.18430    0.27291    0.53218   1.00
C3       0.09567    0.26618    0.46664   1.00
H1       0.08374    0.27255    0.45365   1.00
C3       0.10086    0.19363    0.49095   1.00
H1       0.09369    0.15088    0.49457   1.00
C2       0.08630    0.20360    0.47190   1.00
C2       0.52466    0.75391    0.54151   1.00
C3       0.53682    0.80404    0.52870   1.00
H1       0.50795    0.82215    0.52880   1.00
C3       0.56638    0.72695    0.54072   1.00
H1       0.55817    0.69114    0.54934   1.00
C4       0.59039    0.83007    0.51523   1.00
C5       0.60416    0.88721    0.50048   1.00
H2       0.57792    0.86826    0.48835   1.00
H2       0.59144    0.91762    0.50665   1.00
H2       0.65174    0.91185    0.49716   1.00
C4       0.62065    0.75130    0.52742   1.00
C5       0.66702    0.71901    0.52634   1.00
H2       0.70631    0.74431    0.53473   1.00
H2       0.64207    0.67259    0.53087   1.00
H2       0.68139    0.72015    0.51258   1.00
C6       0.63252    0.80270    0.51420   1.00
C6       0.68998    0.82840    0.49962   1.00
C4       0.67977    0.80203    0.48015   1.00
C5       0.61338    0.74221    0.47455   1.00
H2       0.58418    0.75747    0.46898   1.00
H2       0.62050    0.71543    0.46472   1.00
H2       0.59248    0.71513    0.48648   1.00
C4       0.75326    0.88035    0.50607   1.00
C5       0.76722    0.91209    0.52723   1.00
H2       0.77908    0.88623    0.53626   1.00
H2       0.80418    0.95824    0.52660   1.00
H2       0.72709    0.91139    0.53218   1.00
C3       0.73382    0.82949    0.46664   1.00
H1       0.72745    0.81119    0.45365   1.00
C3       0.80637    0.90723    0.49095   1.00
H1       0.84912    0.94281    0.49457   1.00
C2       0.79640    0.88270    0.47190   1.00
C2       0.24609    0.77075    0.54151   1.00
C3       0.19596    0.73278    0.52870   1.00
H1       0.17785    0.68580    0.52880   1.00
C3       0.27305    0.83943    0.54072   1.00
H1       0.30886    0.86703    0.54934   1.00
C4       0.16993    0.76032    0.51523   1.00
C5       0.11279    0.71695    0.50048   1.00
H2       0.13174    0.70966    0.48835   1.00
H2       0.08238    0.67382    0.50665   1.00
H2       0.08815    0.73989    0.49716   1.00
C4       0.24870    0.86935    0.52742   1.00
C5       0.28099    0.94801    0.52634   1.00
H2       0.25569    0.96200    0.53473   1.00
H2       0.32741    0.96948    0.53087   1.00
H2       0.27985    0.96124    0.51258   1.00
C6       0.19730    0.82982    0.51420   1.00
C6       0.17160    0.86158    0.49962   1.00
C4       0.19797    0.87774    0.48015   1.00
C5       0.25779    0.87117    0.47455   1.00
H2       0.24253    0.82671    0.46898   1.00
H2       0.28457    0.90507    0.46472   1.00
H2       0.28487    0.87735    0.48648   1.00
C4       0.11965    0.87291    0.50607   1.00
C5       0.08791    0.85513    0.52723   1.00
H2       0.11377    0.89285    0.53626   1.00
H2       0.04176    0.84594    0.52660   1.00
H2       0.08861    0.81570    0.53218   1.00
C3       0.17051    0.90433    0.46664   1.00
H1       0.18881    0.91626    0.45365   1.00
C3       0.09277    0.89914    0.49095   1.00
H1       0.05719    0.90631    0.49457   1.00
C2       0.11730    0.91370    0.47190   1.00
C2       0.47534    0.22925    0.95849   1.00
C3       0.46318    0.26722    0.97130   1.00
H1       0.49205    0.31420    0.97120   1.00
C3       0.43362    0.16057    0.95928   1.00
H1       0.44183    0.13297    0.95066   1.00
C4       0.40961    0.23968    0.98477   1.00
C5       0.39584    0.28305    0.99952   1.00
H2       0.42208    0.29034    0.01165   1.00
H2       0.40856    0.32618    0.99335   1.00
H2       0.34826    0.26011    0.00284   1.00
C4       0.37935    0.13065    0.97258   1.00
C5       0.33298    0.05199    0.97366   1.00
H2       0.29369    0.03800    0.96527   1.00
H2       0.35793    0.03052    0.96913   1.00
H2       0.31861    0.03876    0.98742   1.00
C6       0.36748    0.17018    0.98580   1.00
C6       0.31002    0.13842    0.00038   1.00
C4       0.32023    0.12226    0.01985   1.00
C5       0.38662    0.12883    0.02545   1.00
H2       0.41582    0.17329    0.03102   1.00
H2       0.37950    0.09493    0.03528   1.00
H2       0.40752    0.12265    0.01352   1.00
C4       0.24674    0.12709    0.99393   1.00
C5       0.23278    0.14487    0.97277   1.00
H2       0.22092    0.10715    0.96374   1.00
H2       0.19582    0.15406    0.97340   1.00
H2       0.27291    0.18430    0.96782   1.00
C3       0.26618    0.09567    0.03336   1.00
H1       0.27255    0.08374    0.04635   1.00
C3       0.19363    0.10086    0.00905   1.00
H1       0.15088    0.09369    0.00543   1.00
C2       0.20360    0.08630    0.02810   1.00
C2       0.75391    0.52466    0.95849   1.00
C3       0.80404    0.53682    0.97130   1.00
H1       0.82215    0.50795    0.97120   1.00
C3       0.72695    0.56638    0.95928   1.00
H1       0.69114    0.55817    0.95066   1.00
C4       0.83007    0.59039    0.98477   1.00
C5       0.88721    0.60416    0.99952   1.00
H2       0.86826    0.57792    0.01165   1.00
H2       0.91762    0.59144    0.99335   1.00
H2       0.91185    0.65174    0.00284   1.00
C4       0.75130    0.62065    0.97258   1.00
C5       0.71901    0.66702    0.97366   1.00
H2       0.74431    0.70631    0.96527   1.00
H2       0.67259    0.64207    0.96913   1.00
H2       0.72015    0.68139    0.98742   1.00
C6       0.80270    0.63252    0.98580   1.00
C6       0.82840    0.68998    0.00038   1.00
C4       0.80203    0.67977    0.01985   1.00
C5       0.74221    0.61338    0.02545   1.00
H2       0.75747    0.58418    0.03102   1.00
H2       0.71543    0.62050    0.03528   1.00
H2       0.71513    0.59248    0.01352   1.00
C4       0.88035    0.75326    0.99393   1.00
C5       0.91209    0.76722    0.97277   1.00
H2       0.88623    0.77908    0.96374   1.00
H2       0.95824    0.80418    0.97340   1.00
H2       0.91139    0.72709    0.96782   1.00
C3       0.82949    0.73382    0.03336   1.00
H1       0.81119    0.72745    0.04635   1.00
C3       0.90723    0.80637    0.00905   1.00
H1       0.94281    0.84912    0.00543   1.00
C2       0.88270    0.79640    0.02810   1.00
C2       0.77075    0.24609    0.95849   1.00
C3       0.73278    0.19596    0.97130   1.00
H1       0.68580    0.17785    0.97120   1.00
C3       0.83943    0.27305    0.95928   1.00
H1       0.86703    0.30886    0.95066   1.00
C4       0.76032    0.16993    0.98477   1.00
C5       0.71695    0.11279    0.99952   1.00
H2       0.70966    0.13174    0.01165   1.00
H2       0.67382    0.08238    0.99335   1.00
H2       0.73989    0.08815    0.00284   1.00
C4       0.86935    0.24870    0.97258   1.00
C5       0.94801    0.28099    0.97366   1.00
H2       0.96200    0.25569    0.96527   1.00
H2       0.96948    0.32741    0.96913   1.00
H2       0.96124    0.27985    0.98742   1.00
C6       0.82982    0.19730    0.98580   1.00
C6       0.86158    0.17160    0.00038   1.00
C4       0.87774    0.19797    0.01985   1.00
C5       0.87117    0.25779    0.02545   1.00
H2       0.82671    0.24253    0.03102   1.00
H2       0.90507    0.28457    0.03528   1.00
H2       0.87735    0.28487    0.01352   1.00
C4       0.87291    0.11965    0.99393   1.00
C5       0.85513    0.08791    0.97277   1.00
H2       0.89285    0.11377    0.96374   1.00
H2       0.84594    0.04176    0.97340   1.00
H2       0.81570    0.08861    0.96782   1.00
C3       0.90433    0.17051    0.03336   1.00
H1       0.91626    0.18881    0.04635   1.00
C3       0.89914    0.09277    0.00905   1.00
H1       0.90631    0.05719    0.00543   1.00
C2       0.91370    0.11730    0.02810   1.00
C2       0.43742    0.85799    0.79182   1.00
C3       0.39945    0.87015    0.80463   1.00
H1       0.35247    0.84128    0.80453   1.00
C3       0.50610    0.89971    0.79261   1.00
H1       0.53370    0.89150    0.78399   1.00
C4       0.42699    0.92372    0.81810   1.00
C5       0.38362    0.93749    0.83285   1.00
H2       0.37633    0.91125    0.84498   1.00
H2       0.34049    0.92477    0.82668   1.00
H2       0.40656    0.98507    0.83617   1.00
C4       0.53602    0.95398    0.80591   1.00
C5       0.61468    0.00035    0.80699   1.00
H2       0.62867    0.03964    0.79860   1.00
H2       0.63615    0.97540    0.80246   1.00
H2       0.62791    0.01472    0.82075   1.00
C6       0.49649    0.96585    0.81913   1.00
C6       0.52825    0.02331    0.83371   1.00
C4       0.54441    0.01310    0.85318   1.00
C5       0.53784    0.94671    0.85878   1.00
H2       0.49338    0.91751    0.86435   1.00
H2       0.57174    0.95383    0.86861   1.00
H2       0.54402    0.92581    0.84685   1.00
C4       0.53958    0.08659    0.82726   1.00
C5       0.52180    0.10055    0.80610   1.00
H2       0.55952    0.11241    0.79707   1.00
H2       0.51261    0.13751    0.80673   1.00
H2       0.48237    0.06042    0.80115   1.00
C3       0.57100    0.06715    0.86669   1.00
H1       0.58293    0.06078    0.87968   1.00
C3       0.56581    0.13970    0.84238   1.00
H1       0.57298    0.18245    0.83876   1.00
C2       0.58037    0.12973    0.86143   1.00
C2       0.14201    0.57942    0.79182   1.00
C3       0.12985    0.52929    0.80463   1.00
H1       0.15872    0.51118    0.80453   1.00
C3       0.10029    0.60638    0.79261   1.00
H1       0.10850    0.64219    0.78399   1.00
C4       0.07628    0.50326    0.81810   1.00
C5       0.06251    0.44612    0.83285   1.00
H2       0.08875    0.46507    0.84498   1.00
H2       0.07523    0.41571    0.82668   1.00
H2       0.01493    0.42148    0.83617   1.00
C4       0.04602    0.58203    0.80591   1.00
C5       0.99965    0.61432    0.80699   1.00
H2       0.96036    0.58902    0.79860   1.00
H2       0.02460    0.66074    0.80246   1.00
H2       0.98528    0.61318    0.82075   1.00
C6       0.03415    0.53063    0.81913   1.00
C6       0.97669    0.50493    0.83371   1.00
C4       0.98690    0.53130    0.85318   1.00
C5       0.05329    0.59112    0.85878   1.00
H2       0.08249    0.57586    0.86435   1.00
H2       0.04617    0.61790    0.86861   1.00
H2       0.07419    0.61820    0.84685   1.00
C4       0.91341    0.45298    0.82726   1.00
C5       0.89945    0.42124    0.80610   1.00
H2       0.88759    0.44710    0.79707   1.00
H2       0.86249    0.37509    0.80673   1.00
H2       0.93958    0.42194    0.80115   1.00
C3       0.93285    0.50384    0.86669   1.00
H1       0.93922    0.52214    0.87968   1.00
C3       0.86030    0.42610    0.84238   1.00
H1       0.81755    0.39052    0.83876   1.00
C2       0.87027    0.45063    0.86143   1.00
C2       0.42058    0.56258    0.79182   1.00
C3       0.47071    0.60055    0.80463   1.00
H1       0.48882    0.64753    0.80453   1.00
C3       0.39362    0.49390    0.79261   1.00
H1       0.35781    0.46630    0.78399   1.00
C4       0.49674    0.57301    0.81810   1.00
C5       0.55388    0.61638    0.83285   1.00
H2       0.53493    0.62367    0.84498   1.00
H2       0.58429    0.65951    0.82668   1.00
H2       0.57852    0.59344    0.83617   1.00
C4       0.41797    0.46398    0.80591   1.00
C5       0.38568    0.38532    0.80699   1.00
H2       0.41098    0.37133    0.79860   1.00
H2       0.33926    0.36385    0.80246   1.00
H2       0.38682    0.37209    0.82075   1.00
C6       0.46937    0.50351    0.81913   1.00
C6       0.49507    0.47175    0.83371   1.00
C4       0.46870    0.45559    0.85318   1.00
C5       0.40888    0.46216    0.85878   1.00
H2       0.42414    0.50662    0.86435   1.00
H2       0.38210    0.42826    0.86861   1.00
H2       0.38180    0.45598    0.84685   1.00
C4       0.54702    0.46042    0.82726   1.00
C5       0.57876    0.47820    0.80610   1.00
H2       0.55290    0.44048    0.79707   1.00
H2       0.62491    0.48739    0.80673   1.00
H2       0.57806    0.51763    0.80115   1.00
C3       0.49616    0.42900    0.86669   1.00
H1       0.47786    0.41707    0.87968   1.00
C3       0.57390    0.43419    0.84238   1.00
H1       0.60948    0.42702    0.83876   1.00
C2       0.54937    0.41963    0.86143   1.00
C2       0.19133    0.10408    0.37484   1.00
C3       0.20349    0.06611    0.36203   1.00
H1       0.17462    0.01913    0.36213   1.00
C3       0.23305    0.17276    0.37405   1.00
H1       0.22484    0.20036    0.38267   1.00
C4       0.25706    0.09365    0.34856   1.00
C5       0.27083    0.05028    0.33381   1.00
H2       0.24459    0.04299    0.32168   1.00
H2       0.25811    0.00715    0.33998   1.00
H2       0.31841    0.07322    0.33049   1.00
C4       0.28732    0.20268    0.36075   1.00
C5       0.33369    0.28134    0.35967   1.00
H2       0.37298    0.29533    0.36806   1.00
H2       0.30874    0.30281    0.36420   1.00
H2       0.34806    0.29457    0.34591   1.00
C6       0.29919    0.16315    0.34753   1.00
C6       0.35665    0.19491    0.33295   1.00
C4       0.34644    0.21107    0.31348   1.00
C5       0.28005    0.20450    0.30788   1.00
H2       0.25085    0.16004    0.30231   1.00
H2       0.28717    0.23840    0.29805   1.00
H2       0.25915    0.21068    0.31981   1.00
C4       0.41993    0.20624    0.33940   1.00
C5       0.43389    0.18846    0.36056   1.00
H2       0.44575    0.22618    0.36959   1.00
H2       0.47085    0.17927    0.35993   1.00
H2       0.39376    0.14903    0.36551   1.00
C3       0.40049    0.23766    0.29997   1.00
H1       0.39412    0.24959    0.28698   1.00
C3       0.47304    0.23247    0.32428   1.00
H1       0.51579    0.23964    0.32790   1.00
C2       0.46307    0.24703    0.30523   1.00
C2       0.91276    0.80867    0.37484   1.00
C3       0.86263    0.79651    0.36203   1.00
H1       0.84452    0.82538    0.36213   1.00
C3       0.93972    0.76695    0.37405   1.00
H1       0.97553    0.77516    0.38267   1.00
C4       0.83660    0.74294    0.34856   1.00
C5       0.77946    0.72917    0.33381   1.00
H2       0.79841    0.75541    0.32168   1.00
H2       0.74905    0.74189    0.33998   1.00
H2       0.75482    0.68159    0.33049   1.00
C4       0.91537    0.71268    0.36075   1.00
C5       0.94766    0.66631    0.35967   1.00
H2       0.92236    0.62702    0.36806   1.00
H2       0.99408    0.69126    0.36420   1.00
H2       0.94652    0.65194    0.34591   1.00
C6       0.86397    0.70081    0.34753   1.00
C6       0.83827    0.64335    0.33295   1.00
C4       0.86464    0.65356    0.31348   1.00
C5       0.92446    0.71995    0.30788   1.00
H2       0.90920    0.74915    0.30231   1.00
H2       0.95124    0.71283    0.29805   1.00
H2       0.95154    0.74085    0.31981   1.00
C4       0.78632    0.58007    0.33940   1.00
C5       0.75458    0.56611    0.36056   1.00
H2       0.78044    0.55425    0.36959   1.00
H2       0.70843    0.52915    0.35993   1.00
H2       0.75528    0.60624    0.36551   1.00
C3       0.83718    0.59951    0.29997   1.00
H1       0.85548    0.60588    0.28698   1.00
C3       0.75944    0.52696    0.32428   1.00
H1       0.72386    0.48421    0.32790   1.00
C2       0.78397    0.53693    0.30523   1.00
C2       0.89592    0.08724    0.37484   1.00
C3       0.93389    0.13737    0.36203   1.00
H1       0.98087    0.15548    0.36213   1.00
C3       0.82724    0.06028    0.37405   1.00
H1       0.79964    0.02447    0.38267   1.00
C4       0.90635    0.16340    0.34856   1.00
C5       0.94972    0.22054    0.33381   1.00
H2       0.95701    0.20159    0.32168   1.00
H2       0.99285    0.25095    0.33998   1.00
H2       0.92678    0.24518    0.33049   1.00
C4       0.79732    0.08463    0.36075   1.00
C5       0.71866    0.05234    0.35967   1.00
H2       0.70467    0.07764    0.36806   1.00
H2       0.69719    0.00592    0.36420   1.00
H2       0.70543    0.05348    0.34591   1.00
C6       0.83685    0.13603    0.34753   1.00
C6       0.80509    0.16173    0.33295   1.00
C4       0.78893    0.13536    0.31348   1.00
C5       0.79550    0.07554    0.30788   1.00
H2       0.83996    0.09080    0.30231   1.00
H2       0.76160    0.04876    0.29805   1.00
H2       0.78932    0.04846    0.31981   1.00
C4       0.79376    0.21368    0.33940   1.00
C5       0.81154    0.24542    0.36056   1.00
H2       0.77382    0.21956    0.36959   1.00
H2       0.82073    0.29157    0.35993   1.00
H2       0.85097    0.24472    0.36551   1.00
C3       0.76234    0.16282    0.29997   1.00
H1       0.75041    0.14452    0.28698   1.00
C3       0.76753    0.24056    0.32428   1.00
H1       0.76036    0.27614    0.32790   1.00
C2       0.75297    0.21603    0.30523   1.00
C2       0.89592    0.80867    0.87484   1.00
C3       0.93389    0.79651    0.86203   1.00
H1       0.98087    0.82538    0.86213   1.00
C3       0.82724    0.76695    0.87405   1.00
H1       0.79964    0.77516    0.88267   1.00
C4       0.90635    0.74294    0.84856   1.00
C5       0.94972    0.72917    0.83381   1.00
H2       0.95701    0.75541    0.82168   1.00
H2       0.99285    0.74189    0.83998   1.00
H2       0.92678    0.68159    0.83049   1.00
C4       0.79732    0.71268    0.86075   1.00
C5       0.71866    0.66631    0.85967   1.00
H2       0.70467    0.62702    0.86806   1.00
H2       0.69719    0.69126    0.86420   1.00
H2       0.70543    0.65194    0.84591   1.00
C6       0.83685    0.70081    0.84753   1.00
C6       0.80509    0.64335    0.83295   1.00
C4       0.78893    0.65356    0.81348   1.00
C5       0.79550    0.71995    0.80788   1.00
H2       0.83996    0.74915    0.80231   1.00
H2       0.76160    0.71283    0.79805   1.00
H2       0.78932    0.74085    0.81981   1.00
C4       0.79376    0.58007    0.83940   1.00
C5       0.81154    0.56611    0.86056   1.00
H2       0.77382    0.55425    0.86959   1.00
H2       0.82073    0.52915    0.85993   1.00
H2       0.85097    0.60624    0.86551   1.00
C3       0.76234    0.59951    0.79997   1.00
H1       0.75041    0.60588    0.78698   1.00
C3       0.76753    0.52696    0.82428   1.00
H1       0.76036    0.48421    0.82790   1.00
C2       0.75297    0.53693    0.80523   1.00
C2       0.19133    0.08724    0.87484   1.00
C3       0.20349    0.13737    0.86203   1.00
H1       0.17462    0.15548    0.86213   1.00
C3       0.23305    0.06028    0.87405   1.00
H1       0.22484    0.02447    0.88267   1.00
C4       0.25706    0.16340    0.84856   1.00
C5       0.27083    0.22054    0.83381   1.00
H2       0.24459    0.20159    0.82168   1.00
H2       0.25811    0.25095    0.83998   1.00
H2       0.31841    0.24518    0.83049   1.00
C4       0.28732    0.08463    0.86075   1.00
C5       0.33369    0.05234    0.85967   1.00
H2       0.37298    0.07764    0.86806   1.00
H2       0.30874    0.00592    0.86420   1.00
H2       0.34806    0.05348    0.84591   1.00
C6       0.29919    0.13603    0.84753   1.00
C6       0.35665    0.16173    0.83295   1.00
C4       0.34644    0.13536    0.81348   1.00
C5       0.28005    0.07554    0.80788   1.00
H2       0.25085    0.09080    0.80231   1.00
H2       0.28717    0.04876    0.79805   1.00
H2       0.25915    0.04846    0.81981   1.00
C4       0.41993    0.21368    0.83940   1.00
C5       0.43389    0.24542    0.86056   1.00
H2       0.44575    0.21956    0.86959   1.00
H2       0.47085    0.29157    0.85993   1.00
H2       0.39376    0.24472    0.86551   1.00
C3       0.40049    0.16282    0.79997   1.00
H1       0.39412    0.14452    0.78698   1.00
C3       0.47304    0.24056    0.82428   1.00
H1       0.51579    0.27614    0.82790   1.00
C2       0.46307    0.21603    0.80523   1.00
C2       0.91276    0.10408    0.87484   1.00
C3       0.86263    0.06611    0.86203   1.00
H1       0.84452    0.01913    0.86213   1.00
C3       0.93972    0.17276    0.87405   1.00
H1       0.97553    0.20036    0.88267   1.00
C4       0.83660    0.09365    0.84856   1.00
C5       0.77946    0.05028    0.83381   1.00
H2       0.79841    0.04299    0.82168   1.00
H2       0.74905    0.00715    0.83998   1.00
H2       0.75482    0.07322    0.83049   1.00
C4       0.91537    0.20268    0.86075   1.00
C5       0.94766    0.28134    0.85967   1.00
H2       0.92236    0.29533    0.86806   1.00
H2       0.99408    0.30281    0.86420   1.00
H2       0.94652    0.29457    0.84591   1.00
C6       0.86397    0.16315    0.84753   1.00
C6       0.83827    0.19491    0.83295   1.00
C4       0.86464    0.21107    0.81348   1.00
C5       0.92446    0.20450    0.80788   1.00
H2       0.90920    0.16004    0.80231   1.00
H2       0.95124    0.23840    0.79805   1.00
H2       0.95154    0.21068    0.81981   1.00
C4       0.78632    0.20624    0.83940   1.00
C5       0.75458    0.18846    0.86056   1.00
H2       0.78044    0.22618    0.86959   1.00
H2       0.70843    0.17927    0.85993   1.00
H2       0.75528    0.14903    0.86551   1.00
C3       0.83718    0.23766    0.79997   1.00
H1       0.85548    0.24959    0.78698   1.00
C3       0.75944    0.23247    0.82428   1.00
H1       0.72386    0.23964    0.82790   1.00
C2       0.78397    0.24703    0.80523   1.00
C2       0.14201    0.56258    0.29182   1.00
C3       0.12985    0.60055    0.30463   1.00
H1       0.15872    0.64753    0.30453   1.00
C3       0.10029    0.49390    0.29261   1.00
H1       0.10850    0.46630    0.28399   1.00
C4       0.07628    0.57301    0.31810   1.00
C5       0.06251    0.61638    0.33285   1.00
H2       0.08875    0.62367    0.34498   1.00
H2       0.07523    0.65951    0.32668   1.00
H2       0.01493    0.59344    0.33617   1.00
C4       0.04602    0.46398    0.30591   1.00
C5       0.99965    0.38532    0.30699   1.00
H2       0.96036    0.37133    0.29860   1.00
H2       0.02460    0.36385    0.30246   1.00
H2       0.98528    0.37209    0.32075   1.00
C6       0.03415    0.50351    0.31913   1.00
C6       0.97669    0.47175    0.33371   1.00
C4       0.98690    0.45559    0.35318   1.00
C5       0.05329    0.46216    0.35878   1.00
H2       0.08249    0.50662    0.36435   1.00
H2       0.04617    0.42826    0.36861   1.00
H2       0.07419    0.45598    0.34685   1.00
C4       0.91341    0.46042    0.32726   1.00
C5       0.89945    0.47820    0.30610   1.00
H2       0.88759    0.44048    0.29707   1.00
H2       0.86249    0.48739    0.30673   1.00
H2       0.93958    0.51763    0.30115   1.00
C3       0.93285    0.42900    0.36669   1.00
H1       0.93922    0.41707    0.37968   1.00
C3       0.86030    0.43419    0.34238   1.00
H1       0.81755    0.42702    0.33876   1.00
C2       0.87027    0.41963    0.36143   1.00
C2       0.42058    0.85799    0.29182   1.00
C3       0.47071    0.87015    0.30463   1.00
H1       0.48882    0.84128    0.30453   1.00
C3       0.39362    0.89971    0.29261   1.00
H1       0.35781    0.89150    0.28399   1.00
C4       0.49674    0.92372    0.31810   1.00
C5       0.55388    0.93749    0.33285   1.00
H2       0.53493    0.91125    0.34498   1.00
H2       0.58429    0.92477    0.32668   1.00
H2       0.57852    0.98507    0.33617   1.00
C4       0.41797    0.95398    0.30591   1.00
C5       0.38568    0.00035    0.30699   1.00
H2       0.41098    0.03964    0.29860   1.00
H2       0.33926    0.97540    0.30246   1.00
H2       0.38682    0.01472    0.32075   1.00
C6       0.46937    0.96585    0.31913   1.00
C6       0.49507    0.02331    0.33371   1.00
C4       0.46870    0.01310    0.35318   1.00
C5       0.40888    0.94671    0.35878   1.00
H2       0.42414    0.91751    0.36435   1.00
H2       0.38210    0.95383    0.36861   1.00
H2       0.38180    0.92581    0.34685   1.00
C4       0.54702    0.08659    0.32726   1.00
C5       0.57876    0.10055    0.30610   1.00
H2       0.55290    0.11241    0.29707   1.00
H2       0.62491    0.13751    0.30673   1.00
H2       0.57806    0.06042    0.30115   1.00
C3       0.49616    0.06715    0.36669   1.00
H1       0.47786    0.06078    0.37968   1.00
C3       0.57390    0.13970    0.34238   1.00
H1       0.60948    0.18245    0.33876   1.00
C2       0.54937    0.12973    0.36143   1.00
C2       0.43742    0.57942    0.29182   1.00
C3       0.39945    0.52929    0.30463   1.00
H1       0.35247    0.51118    0.30453   1.00
C3       0.50610    0.60638    0.29261   1.00
H1       0.53370    0.64219    0.28399   1.00
C4       0.42699    0.50326    0.31810   1.00
C5       0.38362    0.44612    0.33285   1.00
H2       0.37633    0.46507    0.34498   1.00
H2       0.34049    0.41571    0.32668   1.00
H2       0.40656    0.42148    0.33617   1.00
C4       0.53602    0.58203    0.30591   1.00
C5       0.61468    0.61432    0.30699   1.00
H2       0.62867    0.58902    0.29860   1.00
H2       0.63615    0.66074    0.30246   1.00
H2       0.62791    0.61318    0.32075   1.00
C6       0.49649    0.53063    0.31913   1.00
C6       0.52825    0.50493    0.33371   1.00
C4       0.54441    0.53130    0.35318   1.00
C5       0.53784    0.59112    0.35878   1.00
H2       0.49338    0.57586    0.36435   1.00
H2       0.57174    0.61790    0.36861   1.00
H2       0.54402    0.61820    0.34685   1.00
C4       0.53958    0.45298    0.32726   1.00
C5       0.52180    0.42124    0.30610   1.00
H2       0.55952    0.44710    0.29707   1.00
H2       0.51261    0.37509    0.30673   1.00
H2       0.48237    0.42194    0.30115   1.00
C3       0.57100    0.50384    0.36669   1.00
H1       0.58293    0.52214    0.37968   1.00
C3       0.56581    0.42610    0.34238   1.00
H1       0.57298    0.39052    0.33876   1.00
C2       0.58037    0.45063    0.36143   1.00
C2       0.10408    0.19133    0.12516   1.00
C3       0.06611    0.20349    0.13797   1.00
H1       0.01913    0.17462    0.13787   1.00
C3       0.17276    0.23305    0.12595   1.00
H1       0.20036    0.22484    0.11733   1.00
C4       0.09365    0.25706    0.15144   1.00
C5       0.05028    0.27083    0.16619   1.00
H2       0.04299    0.24459    0.17832   1.00
H2       0.00715    0.25811    0.16002   1.00
H2       0.07322    0.31841    0.16951   1.00
C4       0.20268    0.28732    0.13925   1.00
C5       0.28134    0.33369    0.14033   1.00
H2       0.29533    0.37298    0.13194   1.00
H2       0.30281    0.30874    0.13580   1.00
H2       0.29457    0.34806    0.15409   1.00
C6       0.16315    0.29919    0.15247   1.00
C6       0.19491    0.35665    0.16705   1.00
C4       0.21107    0.34644    0.18652   1.00
C5       0.20450    0.28005    0.19212   1.00
H2       0.16004    0.25085    0.19769   1.00
H2       0.23840    0.28717    0.20195   1.00
H2       0.21068    0.25915    0.18019   1.00
C4       0.20624    0.41993    0.16060   1.00
C5       0.18846    0.43389    0.13944   1.00
H2       0.22618    0.44575    0.13041   1.00
H2       0.17927    0.47085    0.14007   1.00
H2       0.14903    0.39376    0.13449   1.00
C3       0.23766    0.40049    0.20003   1.00
H1       0.24959    0.39412    0.21302   1.00
C3       0.23247    0.47304    0.17572   1.00
H1       0.23964    0.51579    0.17210   1.00
C2       0.24703    0.46307    0.19477   1.00
C2       0.80867    0.91276    0.12516   1.00
C3       0.79651    0.86263    0.13797   1.00
H1       0.82538    0.84452    0.13787   1.00
C3       0.76695    0.93972    0.12595   1.00
H1       0.77516    0.97553    0.11733   1.00
C4       0.74294    0.83660    0.15144   1.00
C5       0.72917    0.77946    0.16619   1.00
H2       0.75541    0.79841    0.17832   1.00
H2       0.74189    0.74905    0.16002   1.00
H2       0.68159    0.75482    0.16951   1.00
C4       0.71268    0.91537    0.13925   1.00
C5       0.66631    0.94766    0.14033   1.00
H2       0.62702    0.92236    0.13194   1.00
H2       0.69126    0.99408    0.13580   1.00
H2       0.65194    0.94652    0.15409   1.00
C6       0.70081    0.86397    0.15247   1.00
C6       0.64335    0.83827    0.16705   1.00
C4       0.65356    0.86464    0.18652   1.00
C5       0.71995    0.92446    0.19212   1.00
H2       0.74915    0.90920    0.19769   1.00
H2       0.71283    0.95124    0.20195   1.00
H2       0.74085    0.95154    0.18019   1.00
C4       0.58007    0.78632    0.16060   1.00
C5       0.56611    0.75458    0.13944   1.00
H2       0.55425    0.78044    0.13041   1.00
H2       0.52915    0.70843    0.14007   1.00
H2       0.60624    0.75528    0.13449   1.00
C3       0.59951    0.83718    0.20003   1.00
H1       0.60588    0.85548    0.21302   1.00
C3       0.52696    0.75944    0.17572   1.00
H1       0.48421    0.72386    0.17210   1.00
C2       0.53693    0.78397    0.19477   1.00
C2       0.08724    0.89592    0.12516   1.00
C3       0.13737    0.93389    0.13797   1.00
H1       0.15548    0.98087    0.13787   1.00
C3       0.06028    0.82724    0.12595   1.00
H1       0.02447    0.79964    0.11733   1.00
C4       0.16340    0.90635    0.15144   1.00
C5       0.22054    0.94972    0.16619   1.00
H2       0.20159    0.95701    0.17832   1.00
H2       0.25095    0.99285    0.16002   1.00
H2       0.24518    0.92678    0.16951   1.00
C4       0.08463    0.79732    0.13925   1.00
C5       0.05234    0.71866    0.14033   1.00
H2       0.07764    0.70467    0.13194   1.00
H2       0.00592    0.69719    0.13580   1.00
H2       0.05348    0.70543    0.15409   1.00
C6       0.13603    0.83685    0.15247   1.00
C6       0.16173    0.80509    0.16705   1.00
C4       0.13536    0.78893    0.18652   1.00
C5       0.07554    0.79550    0.19212   1.00
H2       0.09080    0.83996    0.19769   1.00
H2       0.04876    0.76160    0.20195   1.00
H2       0.04846    0.78932    0.18019   1.00
C4       0.21368    0.79376    0.16060   1.00
C5       0.24542    0.81154    0.13944   1.00
H2       0.21956    0.77382    0.13041   1.00
H2       0.29157    0.82073    0.14007   1.00
H2       0.24472    0.85097    0.13449   1.00
C3       0.16282    0.76234    0.20003   1.00
H1       0.14452    0.75041    0.21302   1.00
C3       0.24056    0.76753    0.17572   1.00
H1       0.27614    0.76036    0.17210   1.00
C2       0.21603    0.75297    0.19477   1.00
C2       0.85799    0.43742    0.70818   1.00
C3       0.87015    0.39945    0.69537   1.00
H1       0.84128    0.35247    0.69547   1.00
C3       0.89971    0.50610    0.70739   1.00
H1       0.89150    0.53370    0.71601   1.00
C4       0.92372    0.42699    0.68190   1.00
C5       0.93749    0.38362    0.66715   1.00
H2       0.91125    0.37633    0.65502   1.00
H2       0.92477    0.34049    0.67332   1.00
H2       0.98507    0.40656    0.66383   1.00
C4       0.95398    0.53602    0.69409   1.00
C5       0.00035    0.61468    0.69301   1.00
H2       0.03964    0.62867    0.70140   1.00
H2       0.97540    0.63615    0.69754   1.00
H2       0.01472    0.62791    0.67925   1.00
C6       0.96585    0.49649    0.68087   1.00
C6       0.02331    0.52825    0.66629   1.00
C4       0.01310    0.54441    0.64682   1.00
C5       0.94671    0.53784    0.64122   1.00
H2       0.91751    0.49338    0.63565   1.00
H2       0.95383    0.57174    0.63139   1.00
H2       0.92581    0.54402    0.65315   1.00
C4       0.08659    0.53958    0.67274   1.00
C5       0.10055    0.52180    0.69390   1.00
H2       0.11241    0.55952    0.70293   1.00
H2       0.13751    0.51261    0.69327   1.00
H2       0.06042    0.48237    0.69885   1.00
C3       0.06715    0.57100    0.63331   1.00
H1       0.06078    0.58293    0.62032   1.00
C3       0.13970    0.56581    0.65762   1.00
H1       0.18245    0.57298    0.66124   1.00
C2       0.12973    0.58037    0.63857   1.00
C2       0.57942    0.14201    0.70818   1.00
C3       0.52929    0.12985    0.69537   1.00
H1       0.51118    0.15872    0.69547   1.00
C3       0.60638    0.10029    0.70739   1.00
H1       0.64219    0.10850    0.71601   1.00
C4       0.50326    0.07628    0.68190   1.00
C5       0.44612    0.06251    0.66715   1.00
H2       0.46507    0.08875    0.65502   1.00
H2       0.41571    0.07523    0.67332   1.00
H2       0.42148    0.01493    0.66383   1.00
C4       0.58203    0.04602    0.69409   1.00
C5       0.61432    0.99965    0.69301   1.00
H2       0.58902    0.96036    0.70140   1.00
H2       0.66074    0.02460    0.69754   1.00
H2       0.61318    0.98528    0.67925   1.00
C6       0.53063    0.03415    0.68087   1.00
C6       0.50493    0.97669    0.66629   1.00
C4       0.53130    0.98690    0.64682   1.00
C5       0.59112    0.05329    0.64122   1.00
H2       0.57586    0.08249    0.63565   1.00
H2       0.61790    0.04617    0.63139   1.00
H2       0.61820    0.07419    0.65315   1.00
C4       0.45298    0.91341    0.67274   1.00
C5       0.42124    0.89945    0.69390   1.00
H2       0.44710    0.88759    0.70293   1.00
H2       0.37509    0.86249    0.69327   1.00
H2       0.42194    0.93958    0.69885   1.00
C3       0.50384    0.93285    0.63331   1.00
H1       0.52214    0.93922    0.62032   1.00
C3       0.42610    0.86030    0.65762   1.00
H1       0.39052    0.81755    0.66124   1.00
C2       0.45063    0.87027    0.63857   1.00
C2       0.56258    0.42058    0.70818   1.00
C3       0.60055    0.47071    0.69537   1.00
H1       0.64753    0.48882    0.69547   1.00
C3       0.49390    0.39362    0.70739   1.00
H1       0.46630    0.35781    0.71601   1.00
C4       0.57301    0.49674    0.68190   1.00
C5       0.61638    0.55388    0.66715   1.00
H2       0.62367    0.53493    0.65502   1.00
H2       0.65951    0.58429    0.67332   1.00
H2       0.59344    0.57852    0.66383   1.00
C4       0.46398    0.41797    0.69409   1.00
C5       0.38532    0.38568    0.69301   1.00
H2       0.37133    0.41098    0.70140   1.00
H2       0.36385    0.33926    0.69754   1.00
H2       0.37209    0.38682    0.67925   1.00
C6       0.50351    0.46937    0.68087   1.00
C6       0.47175    0.49507    0.66629   1.00
C4       0.45559    0.46870    0.64682   1.00
C5       0.46216    0.40888    0.64122   1.00
H2       0.50662    0.42414    0.63565   1.00
H2       0.42826    0.38210    0.63139   1.00
H2       0.45598    0.38180    0.65315   1.00
C4       0.46042    0.54702    0.67274   1.00
C5       0.47820    0.57876    0.69390   1.00
H2       0.44048    0.55290    0.70293   1.00
H2       0.48739    0.62491    0.69327   1.00
H2       0.51763    0.57806    0.69885   1.00
C3       0.42900    0.49616    0.63331   1.00
H1       0.41707    0.47786    0.62032   1.00
C3       0.43419    0.57390    0.65762   1.00
H1       0.42702    0.60948    0.66124   1.00
C2       0.41963    0.54937    0.63857   1.00
C2       0.56258    0.14201    0.20818   1.00
C3       0.60055    0.12985    0.19537   1.00
H1       0.64753    0.15872    0.19547   1.00
C3       0.49390    0.10029    0.20739   1.00
H1       0.46630    0.10850    0.21601   1.00
C4       0.57301    0.07628    0.18190   1.00
C5       0.61638    0.06251    0.16715   1.00
H2       0.62367    0.08875    0.15502   1.00
H2       0.65951    0.07523    0.17332   1.00
H2       0.59344    0.01493    0.16383   1.00
C4       0.46398    0.04602    0.19409   1.00
C5       0.38532    0.99965    0.19301   1.00
H2       0.37133    0.96036    0.20140   1.00
H2       0.36385    0.02460    0.19754   1.00
H2       0.37209    0.98528    0.17925   1.00
C6       0.50351    0.03415    0.18087   1.00
C6       0.47175    0.97669    0.16629   1.00
C4       0.45559    0.98690    0.14682   1.00
C5       0.46216    0.05329    0.14122   1.00
H2       0.50662    0.08249    0.13565   1.00
H2       0.42826    0.04617    0.13139   1.00
H2       0.45598    0.07419    0.15315   1.00
C4       0.46042    0.91341    0.17274   1.00
C5       0.47820    0.89945    0.19390   1.00
H2       0.44048    0.88759    0.20293   1.00
H2       0.48739    0.86249    0.19327   1.00
H2       0.51763    0.93958    0.19885   1.00
C3       0.42900    0.93285    0.13331   1.00
H1       0.41707    0.93922    0.12032   1.00
C3       0.43419    0.86030    0.15762   1.00
H1       0.42702    0.81755    0.16124   1.00
C2       0.41963    0.87027    0.13857   1.00
C2       0.85799    0.42058    0.20818   1.00
C3       0.87015    0.47071    0.19537   1.00
H1       0.84128    0.48882    0.19547   1.00
C3       0.89971    0.39362    0.20739   1.00
H1       0.89150    0.35781    0.21601   1.00
C4       0.92372    0.49674    0.18190   1.00
C5       0.93749    0.55388    0.16715   1.00
H2       0.91125    0.53493    0.15502   1.00
H2       0.92477    0.58429    0.17332   1.00
H2       0.98507    0.57852    0.16383   1.00
C4       0.95398    0.41797    0.19409   1.00
C5       0.00035    0.38568    0.19301   1.00
H2       0.03964    0.41098    0.20140   1.00
H2       0.97540    0.33926    0.19754   1.00
H2       0.01472    0.38682    0.17925   1.00
C6       0.96585    0.46937    0.18087   1.00
C6       0.02331    0.49507    0.16629   1.00
C4       0.01310    0.46870    0.14682   1.00
C5       0.94671    0.40888    0.14122   1.00
H2       0.91751    0.42414    0.13565   1.00
H2       0.95383    0.38210    0.13139   1.00
H2       0.92581    0.38180    0.15315   1.00
C4       0.08659    0.54702    0.17274   1.00
C5       0.10055    0.57876    0.19390   1.00
H2       0.11241    0.55290    0.20293   1.00
H2       0.13751    0.62491    0.19327   1.00
H2       0.06042    0.57806    0.19885   1.00
C3       0.06715    0.49616    0.13331   1.00
H1       0.06078    0.47786    0.12032   1.00
C3       0.13970    0.57390    0.15762   1.00
H1       0.18245    0.60948    0.16124   1.00
C2       0.12973    0.54937    0.13857   1.00
C2       0.57942    0.43742    0.20818   1.00
C3       0.52929    0.39945    0.19537   1.00
H1       0.51118    0.35247    0.19547   1.00
C3       0.60638    0.50610    0.20739   1.00
H1       0.64219    0.53370    0.21601   1.00
C4       0.50326    0.42699    0.18190   1.00
C5       0.44612    0.38362    0.16715   1.00
H2       0.46507    0.37633    0.15502   1.00
H2       0.41571    0.34049    0.17332   1.00
H2       0.42148    0.40656    0.16383   1.00
C4       0.58203    0.53602    0.19409   1.00
C5       0.61432    0.61468    0.19301   1.00
H2       0.58902    0.62867    0.20140   1.00
H2       0.66074    0.63615    0.19754   1.00
H2       0.61318    0.62791    0.17925   1.00
C6       0.53063    0.49649    0.18087   1.00
C6       0.50493    0.52825    0.16629   1.00
C4       0.53130    0.54441    0.14682   1.00
C5       0.59112    0.53784    0.14122   1.00
H2       0.57586    0.49338    0.13565   1.00
H2       0.61790    0.57174    0.13139   1.00
H2       0.61820    0.54402    0.15315   1.00
C4       0.45298    0.53958    0.17274   1.00
C5       0.42124    0.52180    0.19390   1.00
H2       0.44710    0.55952    0.20293   1.00
H2       0.37509    0.51261    0.19327   1.00
H2       0.42194    0.48237    0.19885   1.00
C3       0.50384    0.57100    0.13331   1.00
H1       0.52214    0.58293    0.12032   1.00
C3       0.42610    0.56581    0.15762   1.00
H1       0.39052    0.57298    0.16124   1.00
C2       0.45063    0.58037    0.13857   1.00
C2       0.80867    0.89592    0.62516   1.00
C3       0.79651    0.93389    0.63797   1.00
H1       0.82538    0.98087    0.63787   1.00
C3       0.76695    0.82724    0.62595   1.00
H1       0.77516    0.79964    0.61733   1.00
C4       0.74294    0.90635    0.65144   1.00
C5       0.72917    0.94972    0.66619   1.00
H2       0.75541    0.95701    0.67832   1.00
H2       0.74189    0.99285    0.66002   1.00
H2       0.68159    0.92678    0.66951   1.00
C4       0.71268    0.79732    0.63925   1.00
C5       0.66631    0.71866    0.64033   1.00
H2       0.62702    0.70467    0.63194   1.00
H2       0.69126    0.69719    0.63580   1.00
H2       0.65194    0.70543    0.65409   1.00
C6       0.70081    0.83685    0.65247   1.00
C6       0.64335    0.80509    0.66705   1.00
C4       0.65356    0.78893    0.68652   1.00
C5       0.71995    0.79550    0.69212   1.00
H2       0.74915    0.83996    0.69769   1.00
H2       0.71283    0.76160    0.70195   1.00
H2       0.74085    0.78932    0.68019   1.00
C4       0.58007    0.79376    0.66060   1.00
C5       0.56611    0.81154    0.63944   1.00
H2       0.55425    0.77382    0.63041   1.00
H2       0.52915    0.82073    0.64007   1.00
H2       0.60624    0.85097    0.63449   1.00
C3       0.59951    0.76234    0.70003   1.00
H1       0.60588    0.75041    0.71302   1.00
C3       0.52696    0.76753    0.67572   1.00
H1       0.48421    0.76036    0.67210   1.00
C2       0.53693    0.75297    0.69477   1.00
C2       0.08724    0.19133    0.62516   1.00
C3       0.13737    0.20349    0.63797   1.00
H1       0.15548    0.17462    0.63787   1.00
C3       0.06028    0.23305    0.62595   1.00
H1       0.02447    0.22484    0.61733   1.00
C4       0.16340    0.25706    0.65144   1.00
C5       0.22054    0.27083    0.66619   1.00
H2       0.20159    0.24459    0.67832   1.00
H2       0.25095    0.25811    0.66002   1.00
H2       0.24518    0.31841    0.66951   1.00
C4       0.08463    0.28732    0.63925   1.00
C5       0.05234    0.33369    0.64033   1.00
H2       0.07764    0.37298    0.63194   1.00
H2       0.00592    0.30874    0.63580   1.00
H2       0.05348    0.34806    0.65409   1.00
C6       0.13603    0.29919    0.65247   1.00
C6       0.16173    0.35665    0.66705   1.00
C4       0.13536    0.34644    0.68652   1.00
C5       0.07554    0.28005    0.69212   1.00
H2       0.09080    0.25085    0.69769   1.00
H2       0.04876    0.28717    0.70195   1.00
H2       0.04846    0.25915    0.68019   1.00
C4       0.21368    0.41993    0.66060   1.00
C5       0.24542    0.43389    0.63944   1.00
H2       0.21956    0.44575    0.63041   1.00
H2       0.29157    0.47085    0.64007   1.00
H2       0.24472    0.39376    0.63449   1.00
C3       0.16282    0.40049    0.70003   1.00
H1       0.14452    0.39412    0.71302   1.00
C3       0.24056    0.47304    0.67572   1.00
H1       0.27614    0.51579    0.67210   1.00
C2       0.21603    0.46307    0.69477   1.00
C2       0.10408    0.91276    0.62516   1.00
C3       0.06611    0.86263    0.63797   1.00
H1       0.01913    0.84452    0.63787   1.00
C3       0.17276    0.93972    0.62595   1.00
H1       0.20036    0.97553    0.61733   1.00
C4       0.09365    0.83660    0.65144   1.00
C5       0.05028    0.77946    0.66619   1.00
H2       0.04299    0.79841    0.67832   1.00
H2       0.00715    0.74905    0.66002   1.00
H2       0.07322    0.75482    0.66951   1.00
C4       0.20268    0.91537    0.63925   1.00
C5       0.28134    0.94766    0.64033   1.00
H2       0.29533    0.92236    0.63194   1.00
H2       0.30281    0.99408    0.63580   1.00
H2       0.29457    0.94652    0.65409   1.00
C6       0.16315    0.86397    0.65247   1.00
C6       0.19491    0.83827    0.66705   1.00
C4       0.21107    0.86464    0.68652   1.00
C5       0.20450    0.92446    0.69212   1.00
H2       0.16004    0.90920    0.69769   1.00
H2       0.23840    0.95124    0.70195   1.00
H2       0.21068    0.95154    0.68019   1.00
C4       0.20624    0.78632    0.66060   1.00
C5       0.18846    0.75458    0.63944   1.00
H2       0.22618    0.78044    0.63041   1.00
H2       0.17927    0.70843    0.64007   1.00
H2       0.14903    0.75528    0.63449   1.00
C3       0.23766    0.83718    0.70003   1.00
H1       0.24959    0.85548    0.71302   1.00
C3       0.23247    0.75944    0.67572   1.00
H1       0.23964    0.72386    0.67210   1.00
C2       0.24703    0.78397    0.69477   1.00
