data_IRMOF10_interpen_symm_ligand4cp_label_m_1.

_audit_creation_method             'generated by an auxiliary program of Tobunporous'

_symmetry_space_group_name_H-M     'P 1'
_symmetry_Int_Tables_number        1
_symmetry_cell_setting             triclinic

_cell_length_a                    22.6523
_cell_length_b                    22.6523
_cell_length_c                    65.9502
_cell_angle_alpha                 90.0000
_cell_angle_beta                  90.0000
_cell_angle_gamma                 120.0000

loop_
_atom_site_label
_atom_site_fract_x
_atom_site_fract_y
_atom_site_fract_z
_atom_site_occupancy
O1       0.00000    0.00000    0.57470   1.00
Zn1      0.00000    0.00000    0.54560   1.00
Zn1      0.94843    0.04287    0.58357   1.00
Zn1      0.09443    0.05157    0.58357   1.00
Zn1      0.95713    0.90557    0.58357   1.00
O2       0.93860    0.02610    0.53560   1.00
O2       0.08750    0.06140    0.53560   1.00
O2       0.97390    0.91250    0.53560   1.00
O2       0.91300    0.07160    0.56150   1.00
O2       0.00463    0.12027    0.60077   1.00
O2       0.87413    0.98077    0.60037   1.00
O2       0.15860    0.08700    0.56150   1.00
O2       0.10663    0.12587    0.60037   1.00
O2       0.11563    0.99537    0.60077   1.00
O2       0.92840    0.84140    0.56150   1.00
O2       0.87973    0.88437    0.60077   1.00
O2       0.01923    0.89337    0.60037   1.00
C1       0.91390    0.06020    0.54330   1.00
C1       0.14630    0.08610    0.54330   1.00
C1       0.93980    0.85370    0.54330   1.00
C1       0.06663    0.14397    0.60637   1.00
C1       0.85603    0.92267    0.60637   1.00
C1       0.07733    0.93337    0.60637   1.00
O1       0.00000    0.00000    0.92530   1.00
Zn1      0.00000    0.00000    0.95440   1.00
Zn1      0.04287    0.94843    0.91643   1.00
Zn1      0.05157    0.09443    0.91643   1.00
Zn1      0.90557    0.95713    0.91643   1.00
O2       0.02610    0.93860    0.96440   1.00
O2       0.06140    0.08750    0.96440   1.00
O2       0.91250    0.97390    0.96440   1.00
O2       0.07160    0.91300    0.93850   1.00
O2       0.12027    0.00463    0.89923   1.00
O2       0.98077    0.87413    0.89963   1.00
O2       0.08700    0.15860    0.93850   1.00
O2       0.12587    0.10663    0.89963   1.00
O2       0.99537    0.11563    0.89923   1.00
O2       0.84140    0.92840    0.93850   1.00
O2       0.88437    0.87973    0.89923   1.00
O2       0.89337    0.01923    0.89963   1.00
C1       0.06020    0.91390    0.95670   1.00
C1       0.08610    0.14630    0.95670   1.00
C1       0.85370    0.93980    0.95670   1.00
C1       0.14397    0.06663    0.89363   1.00
C1       0.92267    0.85603    0.89363   1.00
C1       0.93337    0.07733    0.89363   1.00
O1       0.00000    0.00000    0.42530   1.00
Zn1      0.00000    0.00000    0.45440   1.00
Zn1      0.05157    0.95713    0.41643   1.00
Zn1      0.90557    0.94843    0.41643   1.00
Zn1      0.04287    0.09443    0.41643   1.00
O2       0.06140    0.97390    0.46440   1.00
O2       0.91250    0.93860    0.46440   1.00
O2       0.02610    0.08750    0.46440   1.00
O2       0.08700    0.92840    0.43850   1.00
O2       0.99537    0.87973    0.39923   1.00
O2       0.12587    0.01923    0.39963   1.00
O2       0.84140    0.91300    0.43850   1.00
O2       0.89337    0.87413    0.39963   1.00
O2       0.88437    0.00463    0.39923   1.00
O2       0.07160    0.15860    0.43850   1.00
O2       0.12027    0.11563    0.39923   1.00
O2       0.98077    0.10663    0.39963   1.00
C1       0.08610    0.93980    0.45670   1.00
C1       0.85370    0.91390    0.45670   1.00
C1       0.06020    0.14630    0.45670   1.00
C1       0.93337    0.85603    0.39363   1.00
C1       0.14397    0.07733    0.39363   1.00
C1       0.92267    0.06663    0.39363   1.00
O1       0.00000    0.00000    0.07470   1.00
Zn1      0.00000    0.00000    0.04560   1.00
Zn1      0.95713    0.05157    0.08357   1.00
Zn1      0.94843    0.90557    0.08357   1.00
Zn1      0.09443    0.04287    0.08357   1.00
O2       0.97390    0.06140    0.03560   1.00
O2       0.93860    0.91250    0.03560   1.00
O2       0.08750    0.02610    0.03560   1.00
O2       0.92840    0.08700    0.06150   1.00
O2       0.87973    0.99537    0.10077   1.00
O2       0.01923    0.12587    0.10037   1.00
O2       0.91300    0.84140    0.06150   1.00
O2       0.87413    0.89337    0.10037   1.00
O2       0.00463    0.88437    0.10077   1.00
O2       0.15860    0.07160    0.06150   1.00
O2       0.11563    0.12027    0.10077   1.00
O2       0.10663    0.98077    0.10037   1.00
C1       0.93980    0.08610    0.04330   1.00
C1       0.91390    0.85370    0.04330   1.00
C1       0.14630    0.06020    0.04330   1.00
C1       0.85603    0.93337    0.10637   1.00
C1       0.07733    0.14397    0.10637   1.00
C1       0.06663    0.92267    0.10637   1.00
O1       0.66667    0.33333    0.90803   1.00
Zn1      0.66667    0.33333    0.87893   1.00
Zn1      0.61510    0.37620    0.91690   1.00
Zn1      0.76110    0.38490    0.91690   1.00
Zn1      0.62380    0.23890    0.91690   1.00
O2       0.60527    0.35943    0.86893   1.00
O2       0.75417    0.39473    0.86893   1.00
O2       0.64057    0.24583    0.86893   1.00
O2       0.57967    0.40493    0.89483   1.00
O2       0.67130    0.45360    0.93410   1.00
O2       0.54080    0.31410    0.93370   1.00
O2       0.82527    0.42033    0.89483   1.00
O2       0.77330    0.45920    0.93370   1.00
O2       0.78230    0.32870    0.93410   1.00
O2       0.59507    0.17473    0.89483   1.00
O2       0.54640    0.21770    0.93410   1.00
O2       0.68590    0.22670    0.93370   1.00
C1       0.58057    0.39353    0.87663   1.00
C1       0.81297    0.41943    0.87663   1.00
C1       0.60647    0.18703    0.87663   1.00
C1       0.73330    0.47730    0.93970   1.00
C1       0.52270    0.25600    0.93970   1.00
C1       0.74400    0.26670    0.93970   1.00
O1       0.66667    0.33333    0.25863   1.00
Zn1      0.66667    0.33333    0.28773   1.00
Zn1      0.70953    0.28177    0.24977   1.00
Zn1      0.71823    0.42777    0.24977   1.00
Zn1      0.57223    0.29047    0.24977   1.00
O2       0.69277    0.27193    0.29773   1.00
O2       0.72807    0.42083    0.29773   1.00
O2       0.57917    0.30723    0.29773   1.00
O2       0.73827    0.24633    0.27183   1.00
O2       0.78693    0.33797    0.23257   1.00
O2       0.64743    0.20747    0.23297   1.00
O2       0.75367    0.49193    0.27183   1.00
O2       0.79253    0.43997    0.23297   1.00
O2       0.66203    0.44897    0.23257   1.00
O2       0.50807    0.26173    0.27183   1.00
O2       0.55103    0.21307    0.23257   1.00
O2       0.56003    0.35257    0.23297   1.00
C1       0.72687    0.24723    0.29003   1.00
C1       0.75277    0.47963    0.29003   1.00
C1       0.52037    0.27313    0.29003   1.00
C1       0.81063    0.39997    0.22697   1.00
C1       0.58933    0.18937    0.22697   1.00
C1       0.60003    0.41067    0.22697   1.00
O1       0.66667    0.33333    0.75863   1.00
Zn1      0.66667    0.33333    0.78773   1.00
Zn1      0.71823    0.29047    0.74977   1.00
Zn1      0.57223    0.28177    0.74977   1.00
Zn1      0.70953    0.42777    0.74977   1.00
O2       0.72807    0.30723    0.79773   1.00
O2       0.57917    0.27193    0.79773   1.00
O2       0.69277    0.42083    0.79773   1.00
O2       0.75367    0.26173    0.77183   1.00
O2       0.66203    0.21307    0.73257   1.00
O2       0.79253    0.35257    0.73297   1.00
O2       0.50807    0.24633    0.77183   1.00
O2       0.56003    0.20747    0.73297   1.00
O2       0.55103    0.33797    0.73257   1.00
O2       0.73827    0.49193    0.77183   1.00
O2       0.78693    0.44897    0.73257   1.00
O2       0.64743    0.43997    0.73297   1.00
C1       0.75277    0.27313    0.79003   1.00
C1       0.52037    0.24723    0.79003   1.00
C1       0.72687    0.47963    0.79003   1.00
C1       0.60003    0.18937    0.72697   1.00
C1       0.81063    0.41067    0.72697   1.00
C1       0.58933    0.39997    0.72697   1.00
O1       0.66667    0.33333    0.40803   1.00
Zn1      0.66667    0.33333    0.37893   1.00
Zn1      0.62380    0.38490    0.41690   1.00
Zn1      0.61510    0.23890    0.41690   1.00
Zn1      0.76110    0.37620    0.41690   1.00
O2       0.64057    0.39473    0.36893   1.00
O2       0.60527    0.24583    0.36893   1.00
O2       0.75417    0.35943    0.36893   1.00
O2       0.59507    0.42033    0.39483   1.00
O2       0.54640    0.32870    0.43410   1.00
O2       0.68590    0.45920    0.43370   1.00
O2       0.57967    0.17473    0.39483   1.00
O2       0.54080    0.22670    0.43370   1.00
O2       0.67130    0.21770    0.43410   1.00
O2       0.82527    0.40493    0.39483   1.00
O2       0.78230    0.45360    0.43410   1.00
O2       0.77330    0.31410    0.43370   1.00
C1       0.60647    0.41943    0.37663   1.00
C1       0.58057    0.18703    0.37663   1.00
C1       0.81297    0.39353    0.37663   1.00
C1       0.52270    0.26670    0.43970   1.00
C1       0.74400    0.47730    0.43970   1.00
C1       0.73330    0.25600    0.43970   1.00
O1       0.33333    0.66667    0.24137   1.00
Zn1      0.33333    0.66667    0.21227   1.00
Zn1      0.28177    0.70953    0.25023   1.00
Zn1      0.42777    0.71823    0.25023   1.00
Zn1      0.29047    0.57223    0.25023   1.00
O2       0.27193    0.69277    0.20227   1.00
O2       0.42083    0.72807    0.20227   1.00
O2       0.30723    0.57917    0.20227   1.00
O2       0.24633    0.73827    0.22817   1.00
O2       0.33797    0.78693    0.26743   1.00
O2       0.20747    0.64743    0.26703   1.00
O2       0.49193    0.75367    0.22817   1.00
O2       0.43997    0.79253    0.26703   1.00
O2       0.44897    0.66203    0.26743   1.00
O2       0.26173    0.50807    0.22817   1.00
O2       0.21307    0.55103    0.26743   1.00
O2       0.35257    0.56003    0.26703   1.00
C1       0.24723    0.72687    0.20997   1.00
C1       0.47963    0.75277    0.20997   1.00
C1       0.27313    0.52037    0.20997   1.00
C1       0.39997    0.81063    0.27303   1.00
C1       0.18937    0.58933    0.27303   1.00
C1       0.41067    0.60003    0.27303   1.00
O1       0.33333    0.66667    0.59197   1.00
Zn1      0.33333    0.66667    0.62107   1.00
Zn1      0.37620    0.61510    0.58310   1.00
Zn1      0.38490    0.76110    0.58310   1.00
Zn1      0.23890    0.62380    0.58310   1.00
O2       0.35943    0.60527    0.63107   1.00
O2       0.39473    0.75417    0.63107   1.00
O2       0.24583    0.64057    0.63107   1.00
O2       0.40493    0.57967    0.60517   1.00
O2       0.45360    0.67130    0.56590   1.00
O2       0.31410    0.54080    0.56630   1.00
O2       0.42033    0.82527    0.60517   1.00
O2       0.45920    0.77330    0.56630   1.00
O2       0.32870    0.78230    0.56590   1.00
O2       0.17473    0.59507    0.60517   1.00
O2       0.21770    0.54640    0.56590   1.00
O2       0.22670    0.68590    0.56630   1.00
C1       0.39353    0.58057    0.62337   1.00
C1       0.41943    0.81297    0.62337   1.00
C1       0.18703    0.60647    0.62337   1.00
C1       0.47730    0.73330    0.56030   1.00
C1       0.25600    0.52270    0.56030   1.00
C1       0.26670    0.74400    0.56030   1.00
O1       0.33333    0.66667    0.09197   1.00
Zn1      0.33333    0.66667    0.12107   1.00
Zn1      0.38490    0.62380    0.08310   1.00
Zn1      0.23890    0.61510    0.08310   1.00
Zn1      0.37620    0.76110    0.08310   1.00
O2       0.39473    0.64057    0.13107   1.00
O2       0.24583    0.60527    0.13107   1.00
O2       0.35943    0.75417    0.13107   1.00
O2       0.42033    0.59507    0.10517   1.00
O2       0.32870    0.54640    0.06590   1.00
O2       0.45920    0.68590    0.06630   1.00
O2       0.17473    0.57967    0.10517   1.00
O2       0.22670    0.54080    0.06630   1.00
O2       0.21770    0.67130    0.06590   1.00
O2       0.40493    0.82527    0.10517   1.00
O2       0.45360    0.78230    0.06590   1.00
O2       0.31410    0.77330    0.06630   1.00
C1       0.41943    0.60647    0.12337   1.00
C1       0.18703    0.58057    0.12337   1.00
C1       0.39353    0.81297    0.12337   1.00
C1       0.26670    0.52270    0.06030   1.00
C1       0.47730    0.74400    0.06030   1.00
C1       0.25600    0.73330    0.06030   1.00
O1       0.33333    0.66667    0.74137   1.00
Zn1      0.33333    0.66667    0.71227   1.00
Zn1      0.29047    0.71823    0.75023   1.00
Zn1      0.28177    0.57223    0.75023   1.00
Zn1      0.42777    0.70953    0.75023   1.00
O2       0.30723    0.72807    0.70227   1.00
O2       0.27193    0.57917    0.70227   1.00
O2       0.42083    0.69277    0.70227   1.00
O2       0.26173    0.75367    0.72817   1.00
O2       0.21307    0.66203    0.76743   1.00
O2       0.35257    0.79253    0.76703   1.00
O2       0.24633    0.50807    0.72817   1.00
O2       0.20747    0.56003    0.76703   1.00
O2       0.33797    0.55103    0.76743   1.00
O2       0.49193    0.73827    0.72817   1.00
O2       0.44897    0.78693    0.76743   1.00
O2       0.43997    0.64743    0.76703   1.00
C1       0.27313    0.75277    0.70997   1.00
C1       0.24723    0.52037    0.70997   1.00
C1       0.47963    0.72687    0.70997   1.00
C1       0.18937    0.60003    0.77303   1.00
C1       0.41067    0.81063    0.77303   1.00
C1       0.39997    0.58933    0.77303   1.00
C4       0.85152    0.64202    0.48430   1.00
C4       0.87237    0.69129    0.50022   1.00
C3       0.89664    0.64630    0.46857   1.00
C3       0.94139    0.74406    0.50272   1.00
C3       0.78308    0.58605    0.48384   1.00
C3       0.82303    0.68838    0.51433   1.00
C2       0.81036    0.54061    0.45266   1.00
C2       0.91405    0.79295    0.53180   1.00
C3       0.87691    0.59704    0.45328   1.00
C3       0.96166    0.79360    0.51795   1.00
C3       0.76513    0.53677    0.46807   1.00
C3       0.84570    0.74002    0.52955   1.00
H1       0.94534    0.68574    0.46752   1.00
H1       0.97964    0.74809    0.49370   1.00
C5       0.73454    0.58055    0.49878   1.00
C5       0.75330    0.63476    0.51310   1.00
H1       0.91195    0.60291    0.44241   1.00
H1       1.01218    0.83049    0.51890   1.00
H1       0.71709    0.49601    0.46732   1.00
H1       0.81204    0.73994    0.53978   1.00
C6       0.66453    0.51740    0.49939   1.00
C6       0.70037    0.63645    0.52674   1.00
H2       0.66984    0.47248    0.49746   1.00
H2       0.70869    0.68819    0.52709   1.00
H2       0.64195    0.50884    0.51442   1.00
H2       0.64956    0.60833    0.52022   1.00
C6       0.61370    0.51906    0.48357   1.00
C6       0.69892    0.60866    0.54862   1.00
H2       0.63948    0.53733    0.46899   1.00
H2       0.75107    0.62935    0.55417   1.00
C6       0.54535    0.45101    0.47967   1.00
C6       0.65747    0.62182    0.56525   1.00
H2       0.60133    0.55763    0.48855   1.00
H2       0.67848    0.55369    0.54744   1.00
C6       0.55794    0.39653    0.46948   1.00
C6       0.68994    0.69883    0.57021   1.00
C6       0.50453    0.42146    0.49954   1.00
C6       0.58221    0.59335    0.55883   1.00
C6       0.50078    0.46600    0.46500   1.00
C6       0.65801    0.58483    0.58502   1.00
H2       0.58765    0.41622    0.45557   1.00
H2       0.74346    0.72074    0.57448   1.00
H2       0.58550    0.38046    0.47950   1.00
H2       0.68744    0.72743    0.55729   1.00
H2       0.50990    0.35107    0.46555   1.00
H2       0.66352    0.70707    0.58278   1.00
H2       0.45486    0.37680    0.49646   1.00
H2       0.55264    0.59840    0.57109   1.00
H2       0.53162    0.40567    0.50988   1.00
H2       0.57866    0.62090    0.54576   1.00
H2       0.49620    0.45933    0.50724   1.00
H2       0.55856    0.53950    0.55484   1.00
H2       0.52704    0.48636    0.45061   1.00
H2       0.71008    0.60362    0.59033   1.00
H2       0.45254    0.41981    0.46170   1.00
H2       0.63001    0.59291    0.59716   1.00
H2       0.48896    0.50318    0.47153   1.00
H2       0.63444    0.52996    0.58259   1.00
C4       0.34935    0.19581    0.48152   1.00
C4       0.29630    0.16656    0.49634   1.00
C3       0.40153    0.17828    0.48017   1.00
C3       0.28756    0.11268    0.50943   1.00
C3       0.35116    0.24461    0.46739   1.00
C3       0.24968    0.19145    0.49836   1.00
C2       0.45474    0.25239    0.45090   1.00
C2       0.19111    0.10965    0.52701   1.00
C3       0.45247    0.20537    0.46528   1.00
C3       0.23683    0.08524    0.52437   1.00
C3       0.40368    0.27072    0.45240   1.00
C3       0.19896    0.16239    0.51384   1.00
H1       0.40488    0.14568    0.49008   1.00
H1       0.31730    0.09088    0.50846   1.00
C5       0.30169    0.26641    0.46854   1.00
C5       0.25414    0.24365    0.48506   1.00
H1       0.48848    0.19046    0.46507   1.00
H1       0.23337    0.04663    0.53338   1.00
H1       0.40637    0.30516    0.44200   1.00
H1       0.16518    0.17906    0.51583   1.00
C6       0.29981    0.31245    0.45220   1.00
C6       0.20924    0.27452    0.48875   1.00
H2       0.30549    0.29428    0.43743   1.00
H2       0.20875    0.28416    0.50493   1.00
H2       0.24955    0.30718    0.45088   1.00
H2       0.23158    0.32570    0.48252   1.00
C6       0.35390    0.38957    0.45547   1.00
C6       0.13526    0.23011    0.48011   1.00
H2       0.40278    0.39440    0.45973   1.00
H2       0.11604    0.17651    0.48386   1.00
C6       0.36708    0.43962    0.43742   1.00
C6       0.08030    0.24875    0.48687   1.00
H2       0.33803    0.40751    0.46863   1.00
H2       0.13865    0.23269    0.46357   1.00
C6       0.40022    0.42433    0.41907   1.00
C6       0.06431    0.23585    0.50986   1.00
C6       0.30051    0.43704    0.43043   1.00
C6       0.10270    0.32395    0.48192   1.00
C6       0.41741    0.51340    0.44462   1.00
C6       0.01322    0.20252    0.47514   1.00
H2       0.44680    0.42466    0.42357   1.00
H2       0.04940    0.18344    0.51391   1.00
H2       0.36578    0.37471    0.41243   1.00
H2       0.10828    0.26979    0.51907   1.00
H2       0.41353    0.46231    0.40713   1.00
H2       0.02266    0.24445    0.51414   1.00
H2       0.31097    0.47552    0.41885   1.00
H2       0.06208    0.33505    0.48536   1.00
H2       0.26503    0.38748    0.42392   1.00
H2       0.14714    0.35879    0.49086   1.00
H2       0.27539    0.44624    0.44317   1.00
H2       0.11565    0.33477    0.46590   1.00
H2       0.46567    0.51819    0.44953   1.00
H2       -0.00524   0.14872    0.47828   1.00
H2       0.42859    0.55028    0.43247   1.00
H2       -0.02697   0.21333    0.47945   1.00
H2       0.39628    0.52774    0.45732   1.00
H2       0.02088    0.21031    0.45880   1.00
C4       0.80317    0.15179    0.48134   1.00
C4       0.83186    0.12757    0.49622   1.00
C3       0.83037    0.22255    0.47731   1.00
C3       0.89377    0.17180    0.50657   1.00
C3       0.74498    0.10415    0.46992   1.00
C3       0.79808    0.05656    0.50111   1.00
C2       0.74725    0.20070    0.45055   1.00
C2       0.88818    0.07919    0.52704   1.00
C3       0.80357    0.24637    0.46232   1.00
C3       0.92100    0.14853    0.52159   1.00
C3       0.71946    0.13048    0.45472   1.00
C3       0.82729    0.03498    0.51657   1.00
H1       0.87025    0.25946    0.48525   1.00
H1       0.92178    0.22247    0.50345   1.00
C5       0.71360    0.03243    0.47388   1.00
C5       0.73711    0.00914    0.49060   1.00
H1       0.82568    0.29802    0.46010   1.00
H1       0.96568    0.18305    0.52855   1.00
H1       0.67845    0.09819    0.44620   1.00
H1       0.80451    -0.01502   0.52057   1.00
C6       0.65670    -0.01772   0.46026   1.00
C6       0.69802    -0.06455   0.49741   1.00
H2       0.67032    -0.00231   0.44451   1.00
H2       0.69505    -0.06623   0.51391   1.00
H2       0.65293    -0.06749   0.46038   1.00
H2       0.64450    -0.08870   0.49322   1.00
C6       0.58540    -0.02648   0.46576   1.00
C6       0.72851    -0.10845   0.48902   1.00
H2       0.59075    0.02354    0.46857   1.00
H2       0.78401    -0.07996   0.49052   1.00
C6       0.52608    -0.06482   0.45015   1.00
C6       0.70210    -0.18072   0.49854   1.00
H2       0.56951    -0.05334   0.48025   1.00
H2       0.71878    -0.11464   0.47271   1.00
C6       0.53980    -0.02417   0.43009   1.00
C6       0.72357    -0.17598   0.52110   1.00
C6       0.51399    -0.13702   0.44537   1.00
C6       0.62355    -0.22545   0.49690   1.00
C6       0.45949    -0.07285   0.45949   1.00
C6       0.73431    -0.21704   0.48677   1.00
H2       0.54964    0.02747    0.43298   1.00
H2       0.77870    -0.14378   0.52282   1.00
H2       0.58366    -0.02022   0.42206   1.00
H2       0.69927    -0.15469   0.53051   1.00
H2       0.49616    -0.04893   0.41987   1.00
H2       0.70906    -0.22623   0.52719   1.00
H2       0.46949    -0.16510   0.43562   1.00
H2       0.60618    -0.27720   0.50225   1.00
H2       0.55767    -0.13418   0.43749   1.00
H2       0.59825    -0.20459   0.50607   1.00
H2       0.50562    -0.16624   0.45928   1.00
H2       0.60696    -0.22845   0.48121   1.00
H2       0.46506    -0.02316   0.46296   1.00
H2       0.78990    -0.18783   0.48763   1.00
H2       0.41655    -0.09901   0.44907   1.00
H2       0.71773    -0.26768   0.49296   1.00
H2       0.44630    -0.10237   0.47351   1.00
H2       0.71987    -0.22317   0.47078   1.00
C4       0.64147    0.85049    0.01555   1.00
C4       0.69078    0.87106    -0.00034   1.00
C3       0.64110    0.89761    0.02980   1.00
C3       0.73856    0.94086    -0.00440   1.00
C3       0.59025    0.78030    0.01752   1.00
C3       0.69308    0.82060    -0.01282   1.00
C2       0.53976    0.80949    0.04709   1.00
C2       0.79270    0.91260    -0.03183   1.00
C3       0.59166    0.87793    0.04504   1.00
C3       0.78823    0.96111    -0.01959   1.00
C3       0.54060    0.76241    0.03318   1.00
C3       0.74469    0.84333    -0.02806   1.00
H1       0.67715    0.94791    0.02977   1.00
H1       0.73862    0.97964    0.00339   1.00
C5       0.58973    0.73007    0.00416   1.00
C5       0.64448    0.74968    -0.01001   1.00
H1       0.59404    0.91442    0.05479   1.00
H1       0.82138    1.01225    -0.02171   1.00
H1       0.50310    0.71309    0.03497   1.00
H1       0.74825    0.80896    -0.03714   1.00
C6       0.53113    0.65730    0.00502   1.00
C6       0.65201    0.69652    -0.02185   1.00
H2       0.48335    0.65775    0.00620   1.00
H2       0.70545    0.71004    -0.02182   1.00
H2       0.52450    0.63098    -0.00931   1.00
H2       0.62816    0.64767    -0.01406   1.00
C6       0.53866    0.61440    0.02244   1.00
C6       0.62277    0.68586    -0.04393   1.00
H2       0.55513    0.64469    0.03635   1.00
H2       0.63867    0.73542    -0.05089   1.00
C6       0.47477    0.54390    0.02768   1.00
C6       0.64105    0.64389    -0.05897   1.00
H2       0.58052    0.60578    0.01838   1.00
H2       0.56728    0.66089    -0.04280   1.00
C6       0.41621    0.55242    0.03672   1.00
C6       0.71833    0.68154    -0.06399   1.00
C6       0.44807    0.49679    0.00885   1.00
C6       0.61954    0.57210    -0.05051   1.00
C6       0.49560    0.50804    0.04392   1.00
C6       0.60194    0.63466    -0.07915   1.00
H2       0.43374    0.58634    0.04986   1.00
H2       0.73537    0.73287    -0.06970   1.00
H2       0.39617    0.57356    0.02564   1.00
H2       0.74877    0.68607    -0.05068   1.00
H2       0.37381    0.50346    0.04162   1.00
H2       0.72980    0.65421    -0.07554   1.00
H2       0.40668    0.44616    0.01296   1.00
H2       0.62802    0.54156    -0.06169   1.00
H2       0.42838    0.51743    -0.00252   1.00
H2       0.64901    0.57556    -0.03703   1.00
H2       0.48871    0.49109    0.00194   1.00
H2       0.56561    0.54503    -0.04645   1.00
H2       0.51421    0.53895    0.05766   1.00
H2       0.61585    0.68398    -0.08589   1.00
H2       0.45245    0.45865    0.04819   1.00
H2       0.61342    0.60596    -0.09022   1.00
H2       0.53593    0.49933    0.03828   1.00
H2       0.54691    0.60712    -0.07666   1.00
C4       0.19582    0.34934    0.01849   1.00
C4       0.16658    0.29629    0.00366   1.00
C3       0.17814    0.40141    0.01987   1.00
C3       0.11257    0.28743    -0.00939   1.00
C3       0.24477    0.35126    0.03257   1.00
C3       0.19161    0.24979    0.00161   1.00
C2       0.25240    0.45472    0.04910   1.00
C2       0.10968    0.19111    -0.02701   1.00
C3       0.20524    0.45234    0.03476   1.00
C3       0.08514    0.23671    -0.02433   1.00
C3       0.27087    0.40377    0.04757   1.00
C3       0.16254    0.19907    -0.01388   1.00
H1       0.14543    0.40467    0.00999   1.00
H1       0.09068    0.31708    -0.00839   1.00
C5       0.26671    0.30191    0.03139   1.00
C5       0.24394    0.25437    0.01487   1.00
H1       0.19021    0.48827    0.03500   1.00
H1       0.04644    0.23316    -0.03331   1.00
H1       0.30541    0.40654    0.05794   1.00
H1       0.17931    0.16538    -0.01590   1.00
C6       0.31291    0.30014    0.04769   1.00
C6       0.27495    0.20962    0.01113   1.00
H2       0.29479    0.30576    0.06248   1.00
H2       0.28450    0.20916    -0.00505   1.00
H2       0.30777    0.24993    0.04899   1.00
H2       0.32617    0.23205    0.01733   1.00
C6       0.38998    0.35436    0.04439   1.00
C6       0.23072    0.13561    0.01977   1.00
H2       0.39466    0.40319    0.04015   1.00
H2       0.17708    0.11628    0.01606   1.00
C6       0.44017    0.36764    0.06241   1.00
C6       0.24948    0.08077    0.01298   1.00
H2       0.40790    0.33856    0.03121   1.00
H2       0.23339    0.13899    0.03631   1.00
C6       0.42488    0.40069    0.08079   1.00
C6       0.23647    0.06478    -0.01001   1.00
C6       0.43780    0.30115    0.06937   1.00
C6       0.32475    0.10333    0.01788   1.00
C6       0.51386    0.41810    0.05517   1.00
C6       0.20343    0.01365    0.02471   1.00
H2       0.42507    0.44722    0.07630   1.00
H2       0.18401    0.04975    -0.01402   1.00
H2       0.37533    0.36617    0.08745   1.00
H2       0.27028    0.10879    -0.01922   1.00
H2       0.46295    0.41407    0.09270   1.00
H2       0.24516    0.02321    -0.01431   1.00
H2       0.47637    0.31169    0.08092   1.00
H2       0.33595    0.06280    0.01442   1.00
H2       0.38830    0.26558    0.07591   1.00
H2       0.35947    0.14780    0.00893   1.00
H2       0.44699    0.27609    0.05662   1.00
H2       0.33565    0.11628    0.03390   1.00
H2       0.51851    0.46632    0.05028   1.00
H2       0.14959    -0.00492   0.02161   1.00
H2       0.55084    0.42936    0.06730   1.00
H2       0.21433    -0.02646   0.02037   1.00
H2       0.52821    0.39704    0.04245   1.00
H2       0.21132    0.02131    0.04105   1.00
C4       0.15179    0.80317    0.01866   1.00
C4       0.12757    0.83186    0.00378   1.00
C3       0.22255    0.83037    0.02269   1.00
C3       0.17180    0.89377    -0.00657   1.00
C3       0.10415    0.74498    0.03008   1.00
C3       0.05656    0.79808    -0.00111   1.00
C2       0.20070    0.74725    0.04945   1.00
C2       0.07919    0.88818    -0.02704   1.00
C3       0.24637    0.80357    0.03768   1.00
C3       0.14853    0.92099    -0.02159   1.00
C3       0.13049    0.71946    0.04528   1.00
C3       0.03498    0.82729    -0.01657   1.00
H1       0.25947    0.87025    0.01475   1.00
H1       0.22247    0.92177    -0.00345   1.00
C5       0.03243    0.71360    0.02612   1.00
C5       0.00914    0.73712    0.00940   1.00
H1       0.29802    0.82568    0.03990   1.00
H1       0.18305    0.96568    -0.02855   1.00
H1       0.09819    0.67845    0.05380   1.00
H1       -0.01502   0.80451    -0.02057   1.00
C6       -0.01772   0.65671    0.03974   1.00
C6       -0.06455   0.69803    0.00260   1.00
H2       -0.00231   0.67033    0.05549   1.00
H2       -0.06623   0.69505    -0.01391   1.00
H2       -0.06749   0.65294    0.03962   1.00
H2       -0.08870   0.64451    0.00678   1.00
C6       -0.02648   0.58541    0.03424   1.00
C6       -0.10845   0.72852    0.01099   1.00
H2       0.02354    0.59075    0.03143   1.00
H2       -0.07996   0.78403    0.00948   1.00
C6       -0.06483   0.52608    0.04985   1.00
C6       -0.18071   0.70212    0.00146   1.00
H2       -0.05335   0.56951    0.01975   1.00
H2       -0.11464   0.71880    0.02730   1.00
C6       -0.02418   0.53981    0.06991   1.00
C6       -0.17598   0.72358    -0.02110   1.00
C6       -0.13703   0.51400    0.05464   1.00
C6       -0.22545   0.62357    0.00311   1.00
C6       -0.07286   0.45950    0.04052   1.00
C6       -0.21704   0.73433    0.01324   1.00
H2       0.02747    0.54965    0.06702   1.00
H2       -0.14378   0.77871    -0.02281   1.00
H2       -0.02022   0.58367    0.07794   1.00
H2       -0.15469   0.69928    -0.03051   1.00
H2       -0.04893   0.49617    0.08013   1.00
H2       -0.22623   0.70908    -0.02719   1.00
H2       -0.16510   0.46951    0.06438   1.00
H2       -0.27720   0.60620    -0.00225   1.00
H2       -0.13417   0.55769    0.06251   1.00
H2       -0.20460   0.59826    -0.00607   1.00
H2       -0.16625   0.50563    0.04072   1.00
H2       -0.22845   0.60697    0.01879   1.00
H2       -0.02317   0.46506    0.03704   1.00
H2       -0.18782   0.78991    0.01237   1.00
H2       -0.09902   0.41656    0.05094   1.00
H2       -0.26767   0.71775    0.00704   1.00
H2       -0.10238   0.44631    0.02650   1.00
H2       -0.22316   0.71989    0.02922   1.00
C4       0.15023    0.34820    0.51875   1.00
C4       0.12983    0.29634    0.50365   1.00
C3       0.10235    0.35935    0.52966   1.00
C3       0.06011    0.24752    0.49991   1.00
C3       0.22100    0.39108    0.52330   1.00
C3       0.18042    0.29230    0.49171   1.00
C2       0.19117    0.45084    0.55000   1.00
C2       0.08836    0.19352    0.47243   1.00
C3       0.12204    0.40884    0.54489   1.00
C3       0.03986    0.19785    0.48472   1.00
C3       0.23890    0.44063    0.53899   1.00
C3       0.15765    0.24120    0.47631   1.00
H1       0.05143    0.33240    0.52682   1.00
H1       0.02145    0.24579    0.50821   1.00
C5       0.27175    0.38418    0.51223   1.00
C5       0.25152    0.33822    0.49534   1.00
H1       0.08501    0.41417    0.55225   1.00
H1       -0.01125   0.16431    0.48272   1.00
H1       0.28866    0.47176    0.54275   1.00
H1       0.19206    0.23702    0.46742   1.00
C6       0.34576    0.42484    0.51865   1.00
C6       0.30417    0.33812    0.48121   1.00
H2       0.34875    0.42324    0.53512   1.00
H2       0.28714    0.33523    0.46559   1.00
H2       0.37426    0.40021    0.51399   1.00
H2       0.35128    0.38696    0.48126   1.00
C6       0.38291    0.49992    0.51050   1.00
C6       0.32088    0.28029    0.48608   1.00
H2       0.34995    0.52194    0.51249   1.00
H2       0.27354    0.23256    0.48898   1.00
C6       0.45431    0.55087    0.51974   1.00
C6       0.36260    0.26556    0.46994   1.00
H2       0.38877    0.49789    0.49410   1.00
H2       0.34882    0.29314    0.50041   1.00
C6       0.44888    0.56522    0.54247   1.00
C6       0.32162    0.23635    0.45004   1.00
C6       0.50513    0.52435    0.51739   1.00
C6       0.43138    0.33037    0.46500   1.00
C6       0.48394    0.61972    0.50822   1.00
C6       0.37834    0.21124    0.47870   1.00
H2       0.41249    0.58298    0.54468   1.00
H2       0.27225    0.19113    0.45305   1.00
H2       0.43229    0.51970    0.55169   1.00
H2       0.31238    0.27360    0.44239   1.00
H2       0.49806    0.60430    0.54840   1.00
H2       0.34915    0.22184    0.43943   1.00
H2       0.55599    0.56234    0.52255   1.00
H2       0.46216    0.31853    0.45486   1.00
H2       0.48905    0.47835    0.52636   1.00
H2       0.42321    0.36861    0.45751   1.00
H2       0.50882    0.51250    0.50156   1.00
H2       0.46064    0.35278    0.47882   1.00
H2       0.45025    0.64107    0.50958   1.00
H2       0.33133    0.16405    0.48225   1.00
H2       0.53372    0.65723    0.51423   1.00
H2       0.40710    0.19887    0.46790   1.00
H2       0.49030    0.61318    0.49211   1.00
H2       0.40844    0.22945    0.49258   1.00
C4       0.65119    0.80350    0.51862   1.00
C4       0.70256    0.83489    0.50337   1.00
C3       0.65032    0.75536    0.53271   1.00
C3       0.76045    0.82588    0.50250   1.00
C3       0.59821    0.82019    0.52003   1.00
C3       0.69671    0.87716    0.48833   1.00
C2       0.54925    0.74249    0.55009   1.00
C2       0.80476    0.89563    0.47197   1.00
C3       0.60117    0.72598    0.54804   1.00
C3       0.80987    0.85499    0.48723   1.00
C3       0.54933    0.78943    0.53593   1.00
C3       0.74795    0.90556    0.47297   1.00
H1       0.68498    0.73932    0.53224   1.00
H1       0.76922    0.79838    0.51304   1.00
C5       0.59475    0.86613    0.50574   1.00
C5       0.64109    0.89044    0.48892   1.00
H1       0.60351    0.69181    0.55778   1.00
H1       0.85026    0.84632    0.48740   1.00
H1       0.51116    0.80038    0.53751   1.00
H1       0.74531    0.93550    0.46193   1.00
C6       0.54285    0.88892    0.50871   1.00
C6       0.63158    0.92919    0.47171   1.00
H2       0.54192    0.90101    0.52467   1.00
H2       0.63932    0.91027    0.45734   1.00
H2       0.55896    0.93789    0.50155   1.00
H2       0.57881    0.91696    0.47038   1.00
C6       0.46998    0.83583    0.50079   1.00
C6       0.67833    1.00845    0.47359   1.00
H2       0.45738    0.78458    0.50553   1.00
H2       0.72987    1.02068    0.47786   1.00
C6       0.40930    0.84657    0.50704   1.00
C6       0.68417    1.05268    0.45462   1.00
H2       0.47223    0.83532    0.48424   1.00
H2       0.65970    1.02538    0.48634   1.00
C6       0.39549    0.83712    0.53019   1.00
C6       0.72048    1.03957    0.43669   1.00
C6       0.42215    0.91790    0.50068   1.00
C6       0.61334    1.03946    0.44754   1.00
C6       0.34384    0.79216    0.49607   1.00
C6       0.72764    1.12913    0.46049   1.00
H2       0.38732    0.78763    0.53522   1.00
H2       0.77023    1.04739    0.44129   1.00
H2       0.43797    0.87644    0.53882   1.00
H2       0.69052    0.98770    0.43095   1.00
H2       0.35025    0.84001    0.53419   1.00
H2       0.72853    1.07396    0.42406   1.00
H2       0.37759    0.92306    0.50379   1.00
H2       0.61832    1.07397    0.43526   1.00
H2       0.46497    0.95806    0.50902   1.00
H2       0.58227    0.98751    0.44192   1.00
H2       0.43342    0.92642    0.48450   1.00
H2       0.58609    1.04695    0.46001   1.00
H2       0.33204    0.74070    0.50022   1.00
H2       0.77857    1.14138    0.46541   1.00
H2       0.29983    0.79729    0.50007   1.00
H2       0.73357    1.16217    0.44766   1.00
H2       0.34991    0.79708    0.47963   1.00
H2       0.70389    1.14192    0.47283   1.00
C4       0.19658    0.84781    0.51863   1.00
C4       0.16518    0.86781    0.50339   1.00
C3       0.24540    0.89522    0.53255   1.00
C3       0.17491    0.93496    0.50237   1.00
C3       0.17918    0.77796    0.52021   1.00
C3       0.12215    0.81944    0.48851   1.00
C2       0.25762    0.80688    0.55009   1.00
C2       0.10440    0.90926    0.47200   1.00
C3       0.27480    0.87546    0.54788   1.00
C3       0.14578    0.95528    0.48711   1.00
C3       0.21000    0.75987    0.53610   1.00
C3       0.09375    0.84228    0.47315   1.00
H1       0.26193    0.94601    0.53196   1.00
H1       0.20298    0.97145    0.51279   1.00
C5       0.13252    0.72838    0.50609   1.00
C5       0.10814    0.75031    0.48926   1.00
H1       0.30948    0.91208    0.55749   1.00
H1       0.15499    1.00453    0.48716   1.00
H1       0.19857    0.71063    0.53779   1.00
H1       0.06328    0.80951    0.46222   1.00
C6       0.10905    0.65362    0.50925   1.00
C6       0.06854    0.70169    0.47221   1.00
H2       0.09734    0.64116    0.52525   1.00
H2       0.08725    0.72783    0.45775   1.00
H2       0.05978    0.62093    0.50223   1.00
H2       0.08017    0.66073    0.47094   1.00
C6       0.16135    0.63283    0.50128   1.00
C6       -0.01057   0.67001    0.47427   1.00
H2       0.21289    0.67123    0.50587   1.00
H2       -0.02213   0.70983    0.47849   1.00
C6       0.15000    0.56131    0.50769   1.00
C6       -0.05554   0.63133    0.45546   1.00
H2       0.16141    0.63508    0.48473   1.00
H2       -0.02746   0.63483    0.48712   1.00
C6       0.16000    0.55754    0.53084   1.00
C6       -0.04243   0.68032    0.43740   1.00
C6       0.07821    0.50313    0.50156   1.00
C6       -0.04330   0.57299    0.44847   1.00
C6       0.20362    0.54919    0.49667   1.00
C6       -0.13175   0.59926    0.46151   1.00
H2       0.20984    0.59866    0.53571   1.00
H2       -0.04957   0.72274    0.44193   1.00
H2       0.12122    0.56147    0.53953   1.00
H2       0.00921    0.70154    0.43155   1.00
H2       0.15667    0.50928    0.53494   1.00
H2       -0.07730   0.65384    0.42488   1.00
H2       0.07258    0.45329    0.50478   1.00
H2       -0.07832   0.54331    0.43630   1.00
H2       0.03857    0.50657    0.50996   1.00
H2       0.00842    0.59318    0.44273   1.00
H2       0.06931    0.50550    0.48540   1.00
H2       -0.05080   0.53853    0.46102   1.00
H2       0.25537    0.58859    0.50065   1.00
H2       -0.14332   0.63847    0.46637   1.00
H2       0.19805    0.49994    0.50077   1.00
H2       -0.16528   0.57199    0.44879   1.00
H2       0.19827    0.54988    0.48023   1.00
H2       -0.14455   0.56305    0.47394   1.00
C4       0.35836    0.14917    0.98440   1.00
C4       0.30700    0.12454    0.99977   1.00
C3       0.41634    0.21606    0.98491   1.00
C3       0.31355    0.16226    1.01776   1.00
C3       0.35229    0.10600    0.96776   1.00
C3       0.24648    0.05979    0.99733   1.00
C2       0.46396    0.19787    0.95386   1.00
C2       0.20170    0.07632    1.03040   1.00
C3       0.46776    0.23966    0.97018   1.00
C3       0.26244    0.13915    1.03258   1.00
C3       0.40596    0.13184    0.95313   1.00
C3       0.19548    0.03827    1.01272   1.00
H1       0.42305    0.25038    0.99590   1.00
H1       0.35601    0.20762    1.02086   1.00
C5       0.29366    0.03918    0.96596   1.00
C5       0.23824    0.01822    0.97996   1.00
H1       0.50842    0.28833    0.97146   1.00
H1       0.27015    0.16888    1.04516   1.00
H1       0.40371    0.10250    0.94115   1.00
H1       0.15154    -0.00726   1.01146   1.00
C6       0.29138    -0.00854   0.94950   1.00
C6       0.17102    -0.04671   0.97650   1.00
H2       0.34071    -0.00589   0.94872   1.00
H2       0.12939    -0.03687   0.97949   1.00
H2       0.25786    -0.06166   0.95355   1.00
H2       0.16305    -0.06084   0.96056   1.00
C6       0.26924    0.00545    0.92833   1.00
C6       0.16360    -0.10861   0.98919   1.00
H2       0.29580    0.06033    0.92545   1.00
H2       0.18110    -0.09207   1.00471   1.00
C6       0.27956    -0.03003   0.90937   1.00
C6       0.09120    -0.17374   0.99037   1.00
H2       0.21528    -0.00986   0.92929   1.00
H2       0.19902    -0.12335   0.98292   1.00
C6       0.35622    -0.00274   0.90497   1.00
C6       0.04002    -0.15974   1.00207   1.00
C6       0.24280    -0.10851   0.91194   1.00
C6       0.06233    -0.20164   0.96899   1.00
C6       0.24870    -0.01404   0.89056   1.00
C6       0.09717    -0.23008   1.00204   1.00
H2       0.38386    0.05271    0.90340   1.00
H2       0.05943    -0.13892   1.01712   1.00
H2       0.38026    -0.01596   0.91707   1.00
H2       0.03014    -0.12356   0.99403   1.00
H2       0.36302    -0.02425   0.89094   1.00
H2       -0.00888   -0.20647   1.00403   1.00
H2       0.24619    -0.13308   0.89809   1.00
H2       0.01414    -0.24968   0.96999   1.00
H2       0.26572    -0.12278   0.92414   1.00
H2       0.05272    -0.16580   0.96060   1.00
H2       0.18899    -0.12887   0.91548   1.00
H2       0.09806    -0.21058   0.96027   1.00
H2       0.27344    0.04085    0.88793   1.00
H2       0.11671    -0.21320   1.01736   1.00
H2       0.25508    -0.03741   0.87687   1.00
H2       0.04769    -0.27657   1.00338   1.00
H2       0.19423    -0.03332   0.89257   1.00
H2       0.13164    -0.24323   0.99429   1.00
C4       0.80435    0.65049    0.98156   1.00
C4       0.83557    0.70148    0.99691   1.00
C3       0.76608    0.65634    0.96531   1.00
C3       0.83683    0.76496    0.99595   1.00
C3       0.81103    0.59098    0.98225   1.00
C3       0.86709    0.68944    1.01399   1.00
C2       0.74399    0.54902    0.94994   1.00
C2       0.89576    0.80326    1.02845   1.00
C3       0.73706    0.60740    0.94991   1.00
C3       0.86566    0.81423    1.01126   1.00
C3       0.78102    0.54251    0.96621   1.00
C3       0.89556    0.74078    1.02931   1.00
H1       0.75727    0.69606    0.96417   1.00
H1       0.81743    0.77806    0.98398   1.00
C5       0.84652    0.58086    0.99868   1.00
C5       0.86995    0.62772    1.01538   1.00
H1       0.71030    0.61474    0.93857   1.00
H1       0.86468    0.85886    1.00970   1.00
H1       0.78508    0.49977    0.96610   1.00
H1       0.91800    0.73388    1.04174   1.00
C6       0.85944    0.52142    0.99809   1.00
C6       0.89689    0.61248    1.03451   1.00
H2       0.87604    0.51738    0.98290   1.00
H2       0.87588    0.62480    1.04765   1.00
H2       0.90356    0.53127    1.00714   1.00
H2       0.87657    0.55805    1.03653   1.00
C6       0.79657    0.45251    1.00516   1.00
C6       0.97672    0.64963    1.03533   1.00
H2       0.75009    0.44695    0.99830   1.00
H2       0.99792    0.70254    1.03043   1.00
C6       0.79838    0.38539    1.00096   1.00
C6       1.01051    0.65006    1.05609   1.00
H2       0.79039    0.45614    1.02147   1.00
H2       0.99353    0.62607    1.02397   1.00
C6       0.79610    0.37054    0.97791   1.00
C6       0.99818    0.69228    1.07234   1.00
C6       0.86237    0.38808    1.01037   1.00
C6       0.98416    0.57685    1.06418   1.00
C6       0.73444    0.32483    1.01079   1.00
C6       1.08873    0.68387    1.05290   1.00
H2       0.75205    0.36941    0.97075   1.00
H2       1.01524    0.74396    1.06695   1.00
H2       0.84175    0.40908    0.97022   1.00
H2       0.94440    0.66895    1.07625   1.00
H2       0.79260    0.32135    0.97518   1.00
H2       1.02583    0.69623    1.08630   1.00
H2       0.86070    0.33934    1.00862   1.00
H2       1.01153    0.57746    1.07788   1.00
H2       0.90874    0.42689    1.00300   1.00
H2       0.93016    0.55234    1.06800   1.00
H2       0.86597    0.39989    1.02652   1.00
H2       0.99093    0.54561    1.05285   1.00
H2       0.68769    0.32020    1.00450   1.00
H2       1.11008    0.73608    1.04737   1.00
H2       0.73317    0.27661    1.00814   1.00
H2       1.11472    0.68578    1.06704   1.00
H2       0.73384    0.33166    1.02716   1.00
H2       1.10081    0.65554    1.04186   1.00
C4       0.84786    0.19661    0.98137   1.00
C4       0.86787    0.16520    0.99660   1.00
C3       0.89533    0.24573    0.96752   1.00
C3       0.93514    0.17526    0.99769   1.00
C3       0.77794    0.17891    0.97971   1.00
C3       0.81940    0.12185    1.01141   1.00
C2       0.80694    0.25768    0.94991   1.00
C2       0.90932    0.10441    1.02799   1.00
C3       0.87557    0.27514    0.95220   1.00
C3       0.95544    0.14612    1.01295   1.00
C3       0.75986    0.20975    0.96383   1.00
C3       0.84223    0.09345    1.02677   1.00
H1       0.94616    0.26248    0.96817   1.00
H1       0.97172    0.20358    0.98732   1.00
C5       0.72829    0.13193    0.99376   1.00
C5       0.75017    0.10752    1.01059   1.00
H1       0.91223    0.31005    0.94264   1.00
H1       1.00478    0.15557    1.01295   1.00
H1       0.71058    0.19811    0.96208   1.00
H1       0.80939    0.06275    1.03765   1.00
C6       0.65349    0.10817    0.99051   1.00
C6       0.70140    0.06755    1.02757   1.00
H2       0.64129    0.09662    0.97450   1.00
H2       0.72730    0.08616    1.04206   1.00
H2       0.62088    0.05876    0.99747   1.00
H2       0.66024    0.07892    1.02881   1.00
C6       0.63226    0.16011    0.99850   1.00
C6       0.67008    -0.01149   1.02542   1.00
H2       0.67055    0.21178    0.99398   1.00
H2       0.71013    -0.02276   1.02123   1.00
C6       0.56070    0.14849    0.99202   1.00
C6       0.63127    -0.05679   1.04417   1.00
H2       0.63429    0.15998    1.01505   1.00
H2       0.63507    -0.02836   1.01253   1.00
C6       0.55719    0.15875    0.96887   1.00
C6       0.68008    -0.04369   1.06228   1.00
C6       0.50267    0.07651    0.99805   1.00
C6       0.57262    -0.04498   1.05111   1.00
C6       0.54811    0.20177    1.00307   1.00
C6       0.59961    -0.13289   1.03804   1.00
H2       0.59822    0.20873    0.96407   1.00
H2       0.72270    -0.05052   1.05779   1.00
H2       0.56145    0.12019    0.96016   1.00
H2       0.70100    0.00786    1.06819   1.00
H2       0.50887    0.15522    0.96472   1.00
H2       0.65354    -0.07876   1.07475   1.00
H2       0.45276    0.07067    0.99478   1.00
H2       0.54288    -0.08022   1.06324   1.00
H2       0.50644    0.03710    0.98963   1.00
H2       0.59251    0.00663    1.05691   1.00
H2       0.50486    0.06744    1.01421   1.00
H2       0.53828    -0.05249   1.03853   1.00
H2       0.58739    0.25363    0.99915   1.00
H2       0.63905    -0.14415   1.03321   1.00
H2       0.49882    0.19600    0.99891   1.00
H2       0.57227    -0.16664   1.05072   1.00
H2       0.54860    0.19622    1.01950   1.00
H2       0.56354    -0.14569   1.02557   1.00
C4       0.51279    0.98381    0.81489   1.00
C4       0.53651    1.03688    0.82971   1.00
C3       0.44363    0.93010    0.81403   1.00
C3       0.49152    1.04399    0.84330   1.00
C3       0.55933    0.98357    0.80027   1.00
C3       0.60776    1.08520    0.83119   1.00
C2       0.46403    0.87832    0.78431   1.00
C2       0.58475    1.14215    0.86035   1.00
C3       0.41980    0.87911    0.79916   1.00
C3       0.51481    1.09476    0.85823   1.00
C3       0.53293    0.93093    0.78531   1.00
C3       0.62944    1.13591    0.84668   1.00
H1       0.40812    0.92563    0.82429   1.00
H1       0.44008    1.01295    0.84273   1.00
C5       0.63015    1.03466    0.80090   1.00
C5       0.65522    1.08239    0.81738   1.00
H1       0.36927    0.84194    0.79931   1.00
H1       0.47979    1.09699    0.86762   1.00
H1       0.56434    0.92931    0.77458   1.00
H1       0.67973    1.17088    0.84830   1.00
C6       0.67729    1.03805    0.78408   1.00
C6       0.73102    1.12918    0.82049   1.00
H2       0.65186    1.03150    0.76954   1.00
H2       0.74282    1.13018    0.83655   1.00
H2       0.72114    1.08898    0.78253   1.00
H2       0.76056    1.10822    0.81386   1.00
C6       0.70292    0.98580    0.78685   1.00
C6       0.75767    1.20278    0.81189   1.00
H2       0.66025    0.93629    0.79135   1.00
H2       0.72240    1.22047    0.81609   1.00
C6       0.73919    0.97399    0.76836   1.00
C6       0.83120    1.25942    0.81814   1.00
H2       0.73796    1.00270    0.79973   1.00
H2       0.75543    1.19927    0.79535   1.00
C6       0.68940    0.93957    0.75037   1.00
C6       0.83593    1.27544    0.84115   1.00
C6       0.80126    1.04155    0.76102   1.00
C6       0.88522    1.23924    0.81253   1.00
C6       0.76547    0.92547    0.77509   1.00
C6       0.84895    1.32591    0.80650   1.00
H2       0.64444    0.89224    0.75514   1.00
H2       0.79766    1.28880    0.84566   1.00
H2       0.67214    0.97278    0.74406   1.00
H2       0.82813    1.23200    0.85026   1.00
H2       0.71385    0.92726    0.73812   1.00
H2       0.88595    1.31815    0.84510   1.00
H2       0.82903    1.03216    0.74911   1.00
H2       0.93669    1.28099    0.81561   1.00
H2       0.78508    1.07582    0.75482   1.00
H2       0.87787    1.19536    0.82136   1.00
H2       0.83644    1.06754    0.77351   1.00
H2       0.88202    1.22631    0.79648   1.00
H2       0.72343    0.87659    0.78022   1.00
H2       0.81266    1.34281    0.81010   1.00
H2       0.79086    0.91529    0.76262   1.00
H2       0.89980    1.36722    0.81047   1.00
H2       0.80198    0.94759    0.78751   1.00
H2       0.84783    1.31824    0.79013   1.00
C4       0.01529    0.53017    0.81467   1.00
C4       -0.03761   0.50148    0.82955   1.00
C3       0.05881    0.50293    0.81063   1.00
C3       -0.05534   0.43954    0.83989   1.00
C3       0.02588    0.58839    0.80326   1.00
C3       -0.07481   0.53528    0.83445   1.00
C2       0.12011    0.58608    0.78388   1.00
C2       -0.14231   0.44516    0.86037   1.00
C3       0.10943    0.52973    0.79564   1.00
C3       -0.10583   0.41232    0.85491   1.00
C3       0.07773    0.61391    0.78806   1.00
C3       -0.12560   0.50608    0.84991   1.00
H1       0.05582    0.46302    0.81856   1.00
H1       -0.03270   0.41151    0.83676   1.00
C5       -0.01444   0.61980    0.80723   1.00
C5       -0.06123   0.59628    0.82395   1.00
H1       0.13895    0.50760    0.79341   1.00
H1       -0.11602   0.36761    0.86186   1.00
H1       0.08647    0.65494    0.77955   1.00
H1       -0.15280   0.52888    0.85392   1.00
C6       -0.00766   0.67673    0.79363   1.00
C6       -0.09579   0.63540    0.83077   1.00
H2       -0.00587   0.66313    0.77787   1.00
H2       -0.09449   0.63835    0.84728   1.00
H2       -0.05363   0.68054    0.79375   1.00
H2       -0.06639   0.68893    0.82660   1.00
C6       0.05492    0.74801    0.79913   1.00
C6       -0.17018   0.60497    0.82238   1.00
H2       0.09958    0.74262    0.80194   1.00
H2       -0.19722   0.54946    0.82388   1.00
C6       0.07593    0.80736    0.78353   1.00
C6       -0.21600   0.63139    0.83192   1.00
H2       0.04397    0.76389    0.81363   1.00
H2       -0.16664   0.61472    0.80607   1.00
C6       0.10284    0.79365    0.76346   1.00
C6       -0.23273   0.60990    0.85447   1.00
C6       0.01584    0.81950    0.77875   1.00
C6       -0.18215   0.70995    0.83029   1.00
C6       0.13452    0.87391    0.79287   1.00
C6       -0.28454   0.59924    0.82015   1.00
H2       0.14462    0.78377    0.76635   1.00
H2       -0.25570   0.55476    0.85618   1.00
H2       0.06292    0.74982    0.75543   1.00
H2       -0.18714   0.63416    0.86389   1.00
H2       0.12175    0.83731    0.75325   1.00
H2       -0.26846   0.62442    0.86057   1.00
H2       0.03229    0.86402    0.76902   1.00
H2       -0.21650   0.72734    0.83565   1.00
H2       -0.02501   0.77584    0.77088   1.00
H2       -0.13598   0.73522    0.83946   1.00
H2       -0.00499   0.82787    0.79267   1.00
H2       -0.16854   0.72657    0.81460   1.00
H2       0.17862    0.86831    0.79634   1.00
H2       -0.31094   0.54366    0.82100   1.00
H2       0.15132    0.91687    0.78246   1.00
H2       -0.31856   0.61585    0.82635   1.00
H2       0.11820    0.88710    0.80690   1.00
H2       -0.27622   0.61371    0.80416   1.00
C4       0.46988    0.48518    0.81467   1.00
C4       0.49858    0.46098    0.82955   1.00
C3       0.49678    0.55595    0.81074   1.00
C3       0.56027    0.50528    0.84000   1.00
C3       0.41197    0.43751    0.80316   1.00
C3       0.46507    0.38990    0.83434   1.00
C2       0.41394    0.53409    0.78389   1.00
C2       0.55492    0.41259    0.86036   1.00
C3       0.46998    0.57977    0.79576   1.00
C3       0.58749    0.48200    0.85501   1.00
C3       0.38644    0.46385    0.78797   1.00
C3       0.49427    0.36832    0.84981   1.00
H1       0.53645    0.59287    0.81875   1.00
H1       0.58809    0.55602    0.83695   1.00
C5       0.38088    0.36575    0.80702   1.00
C5       0.40437    0.34242    0.82373   1.00
H1       0.49187    0.63144    0.79361   1.00
H1       0.63200    0.51659    0.86204   1.00
H1       0.34562    0.43155    0.77938   1.00
H1       0.47168    0.31826    0.85373   1.00
C6       0.32432    0.31563    0.79331   1.00
C6       0.36551    0.26861    0.83044   1.00
H2       0.33812    0.33133    0.77759   1.00
H2       0.36229    0.26665    0.84694   1.00
H2       0.32085    0.26599    0.79337   1.00
H2       0.31203    0.24427    0.82619   1.00
C6       0.25278    0.30637    0.79874   1.00
C6       0.39648    0.22516    0.82202   1.00
H2       0.25779    0.35622    0.80161   1.00
H2       0.45197    0.25388    0.82360   1.00
C6       0.19374    0.26803    0.78304   1.00
C6       0.37031    0.15281    0.83146   1.00
H2       0.23679    0.27926    0.81319   1.00
H2       0.38701    0.21920    0.80570   1.00
C6       0.20754    0.30896    0.76304   1.00
C6       0.39147    0.15730    0.85403   1.00
C6       0.18213    0.19606    0.77817   1.00
C6       0.29182    0.10775    0.82970   1.00
C6       0.12686    0.25947    0.79232   1.00
C6       0.40302    0.11698    0.81967   1.00
H2       0.21705    0.36046    0.76599   1.00
H2       0.44656    0.18971    0.85583   1.00
H2       0.25163    0.31331    0.75505   1.00
H2       0.36683    0.17822    0.86345   1.00
H2       0.16407    0.28418    0.75276   1.00
H2       0.37715    0.10701    0.86006   1.00
H2       0.13781    0.16796    0.76837   1.00
H2       0.27464    0.05597    0.83499   1.00
H2       0.22605    0.19930    0.77034   1.00
H2       0.26617    0.12824    0.83888   1.00
H2       0.17371    0.16665    0.79205   1.00
H2       0.27542    0.10492    0.81400   1.00
H2       0.13209    0.30898    0.79585   1.00
H2       0.45858    0.14643    0.82061   1.00
H2       0.08411    0.23330    0.78184   1.00
H2       0.38660    0.06630    0.82580   1.00
H2       0.11360    0.22973    0.80630   1.00
H2       0.38880    0.11105    0.80367   1.00
C4       0.30684    0.17756    0.34865   1.00
C4       0.35708    0.19718    0.33306   1.00
C3       0.27194    0.21413    0.35255   1.00
C3       0.37077    0.25018    0.31895   1.00
C3       0.29027    0.11933    0.36097   1.00
C3       0.39552    0.16299    0.33128   1.00
C2       0.20282    0.13597    0.37949   1.00
C2       0.46099    0.23918    0.30217   1.00
C3       0.22127    0.19388    0.36742   1.00
C3       0.42134    0.27086    0.30402   1.00
C3       0.23810    0.10018    0.37588   1.00
C3       0.44682    0.18585    0.31595   1.00
H1       0.28252    0.25725    0.34486   1.00
H1       0.34405    0.27529    0.31885   1.00
C5       0.32569    0.08216    0.35833   1.00
C5       0.38206    0.10735    0.34451   1.00
H1       0.19782    0.22227    0.36943   1.00
H1       0.42891    0.30959    0.29436   1.00
H1       0.22457    0.05880    0.38484   1.00
H1       0.47552    0.16311    0.31430   1.00
C6       0.30269    0.01655    0.36996   1.00
C6       0.42790    0.07649    0.34388   1.00
H2       0.24721    -0.01362   0.36957   1.00
H2       0.48085    0.11736    0.34305   1.00
H2       0.31688    -0.01691   0.36222   1.00
H2       0.42733    0.05237    0.35819   1.00
C6       0.33061    0.02847    0.39223   1.00
C6       0.40969    0.02355    0.32629   1.00
H2       0.32544    0.06945    0.39920   1.00
H2       0.40038    0.04373    0.31235   1.00
C6       0.29842    -0.03399   0.40701   1.00
C6       0.46227    -0.00014   0.32134   1.00
H2       0.38546    0.04777    0.39144   1.00
H2       0.36093    -0.02149   0.33002   1.00
C6       0.22252    -0.05788   0.41156   1.00
C6       0.52979    0.05910    0.31275   1.00
C6       0.30411    -0.09473   0.39851   1.00
C6       0.47813    -0.03049   0.34023   1.00
C6       0.33774    -0.01210   0.42744   1.00
C6       0.43112    -0.05659   0.30485   1.00
H2       0.21664    -0.01584   0.41729   1.00
H2       0.52022    0.08237    0.29958   1.00
H2       0.19105    -0.07797   0.39804   1.00
H2       0.55661    0.09885    0.32403   1.00
H2       0.20191    -0.09826   0.42295   1.00
H2       0.56424    0.04105    0.30803   1.00
H2       0.28599    -0.13613   0.40954   1.00
H2       0.51096    -0.05127   0.33629   1.00
H2       0.27345    -0.11517   0.38483   1.00
H2       0.50443    0.00842    0.35180   1.00
H2       0.35691    -0.07893   0.39478   1.00
H2       0.43128    -0.07140   0.34682   1.00
H2       0.33472    0.03032    0.43422   1.00
H2       0.41960    -0.03754   0.29106   1.00
H2       0.31680    -0.05399   0.43835   1.00
H2       0.46622    -0.07452   0.30076   1.00
H2       0.39151    0.00404    0.42529   1.00
H2       0.38392    -0.10050   0.31017   1.00
C4       0.87584    0.69172    0.34892   1.00
C4       0.84719    0.64242    0.33302   1.00
C3       0.92153    0.69074    0.36360   1.00
C3       0.86767    0.59321    0.32940   1.00
C3       0.85862    0.74431    0.35046   1.00
C3       0.79612    0.64162    0.32007   1.00
C2       0.93642    0.79334    0.38049   1.00
C2       0.78691    0.54057    0.30150   1.00
C3       0.95123    0.74013    0.37885   1.00
C3       0.83829    0.54358    0.31420   1.00
C3       0.89026    0.79385    0.36615   1.00
C3       0.76722    0.58999    0.30484   1.00
H1       0.93443    0.65371    0.36388   1.00
H1       0.90518    0.59201    0.33754   1.00
C5       0.81070    0.74626    0.33664   1.00
C5       0.77547    0.69166    0.32243   1.00
H1       0.98401    0.73674    0.38892   1.00
H1       0.85511    0.50936    0.31242   1.00
H1       0.87967    0.83229    0.36764   1.00
H1       0.73045    0.58748    0.29543   1.00
C6       0.79852    0.80619    0.33708   1.00
C6       0.71638    0.68579    0.31009   1.00
H2       0.84736    0.85320    0.33846   1.00
H2       0.67544    0.63278    0.31003   1.00
H2       0.78040    0.81341    0.32254   1.00
H2       0.69196    0.71083    0.31752   1.00
C6       0.74740    0.80024    0.35407   1.00
C6       0.73719    0.71472    0.28803   1.00
H2       0.75946    0.78321    0.36819   1.00
H2       0.77031    0.69749    0.28146   1.00
C6       0.74249    0.86533    0.35893   1.00
C6       0.67844    0.69791    0.27254   1.00
H2       0.69672    0.75927    0.34977   1.00
H2       0.76885    0.77012    0.28916   1.00
C6       0.80965    0.92278    0.36828   1.00
C6       0.63741    0.62065    0.26755   1.00
C6       0.72461    0.89292    0.33978   1.00
C6       0.62902    0.72136    0.28044   1.00
C6       0.68488    0.84607    0.37475   1.00
C6       0.71053    0.73652    0.25245   1.00
H2       0.82428    0.90459    0.38165   1.00
H2       0.67103    0.60224    0.26224   1.00
H2       0.85159    0.94176    0.35748   1.00
H2       0.61000    0.59065    0.28078   1.00
H2       0.80416    0.96607    0.37290   1.00
H2       0.59972    0.61010    0.25571   1.00
H2       0.71652    0.93525    0.34360   1.00
H2       0.59118    0.71387    0.26895   1.00
H2       0.76575    0.91157    0.32868   1.00
H2       0.60153    0.69235    0.29382   1.00
H2       0.67827    0.85304    0.33266   1.00
H2       0.65683    0.77530    0.28447   1.00
H2       0.69540    0.82691    0.38869   1.00
H2       0.74542    0.72125    0.24610   1.00
H2       0.67977    0.89010    0.37874   1.00
H2       0.67144    0.72602    0.24107   1.00
H2       0.63580    0.80661    0.36887   1.00
H2       0.73910    0.79155    0.25490   1.00
C4       0.81633    0.12439    0.34887   1.00
C4       0.79580    0.15318    0.33297   1.00
C3       0.76901    0.07597    0.36289   1.00
C3       0.72598    0.13037    0.32868   1.00
C3       0.88669    0.14426    0.35106   1.00
C3       0.84633    0.20680    0.32074   1.00
C2       0.85732    0.06362    0.38039   1.00
C2       0.75428    0.21362    0.30149   1.00
C3       0.78869    0.04619    0.37812   1.00
C3       0.70573    0.15981    0.31349   1.00
C3       0.90458    0.11244    0.36670   1.00
C3       0.82359    0.23567    0.30550   1.00
H1       0.71855    0.06104    0.36269   1.00
H1       0.68719    0.09105    0.33628   1.00
C5       0.93708    0.19488    0.33794   1.00
C5       0.91733    0.22996    0.32379   1.00
H1       0.75205    0.01139    0.38770   1.00
H1       0.65456    0.14123    0.31120   1.00
H1       0.95402    0.12489    0.36865   1.00
H1       0.85800    0.27419    0.29659   1.00
C6       1.01015    0.21007    0.33903   1.00
C6       0.97043    0.29148    0.31222   1.00
H2       1.01043    0.16219    0.34011   1.00
H2       0.95616    0.33085    0.31230   1.00
H2       1.03696    0.23058    0.32481   1.00
H2       1.01893    0.31675    0.32019   1.00
C6       1.05184    0.26010    0.35666   1.00
C6       0.98240    0.27407    0.29013   1.00
H2       1.02096    0.24537    0.37047   1.00
H2       0.93329    0.24016    0.28297   1.00
C6       1.12257    0.26759    0.36211   1.00
C6       1.02436    0.33508    0.27533   1.00
H2       1.05989    0.31047    0.35273   1.00
H2       1.00802    0.24416    0.29126   1.00
C6       1.11470    0.20058    0.37099   1.00
C6       0.98598    0.37398    0.27028   1.00
C6       1.17052    0.28933    0.34345   1.00
C6       1.09555    0.38577    0.28409   1.00
C6       1.15712    0.32376    0.37856   1.00
C6       1.03499    0.30638    0.25512   1.00
H2       1.08022    0.18326    0.38400   1.00
H2       0.93504    0.33937    0.26437   1.00
H2       1.09452    0.15983    0.35977   1.00
H2       0.98044    0.39909    0.28364   1.00
H2       1.16373    0.20767    0.37604   1.00
H2       1.01338    0.41335    0.25889   1.00
H2       1.22122    0.29913    0.34771   1.00
H2       1.12617    0.42540    0.27307   1.00
H2       1.15084    0.24942    0.33194   1.00
H2       1.09107    0.41099    0.29761   1.00
H2       1.17580    0.33564    0.33665   1.00
H2       1.12309    0.35941    0.28817   1.00
H2       1.12559    0.31054    0.39219   1.00
H2       0.98614    0.27073    0.24817   1.00
H2       1.20662    0.33059    0.38298   1.00
H2       1.06374    0.34712    0.24421   1.00
H2       1.16534    0.37276    0.37304   1.00
H2       1.06309    0.27947    0.25762   1.00
C4       0.81361    0.68139    0.85204   1.00
C4       0.79224    0.62882    0.83713   1.00
C3       0.77395    0.71217    0.85713   1.00
C3       0.72670    0.59842    0.82783   1.00
C3       0.87697    0.70479    0.86239   1.00
C3       0.83742    0.60503    0.83113   1.00
C2       0.85517    0.78536    0.88290   1.00
C2       0.75020    0.52485    0.80625   1.00
C3       0.79381    0.76232    0.87215   1.00
C3       0.70634    0.54826    0.81279   1.00
C3       0.89517    0.75570    0.87767   1.00
C3       0.81487    0.55413    0.81567   1.00
H1       0.72947    0.69977    0.84996   1.00
H1       0.69106    0.61109    0.83178   1.00
C5       0.92044    0.67778    0.85733   1.00
C5       0.90294    0.63165    0.84056   1.00
H1       0.76281    0.78230    0.87516   1.00
H1       0.65850    0.52856    0.80661   1.00
H1       0.93960    0.77331    0.88546   1.00
H1       0.84572    0.53626    0.81090   1.00
C6       0.98370    0.69765    0.86986   1.00
C6       0.95298    0.61138    0.83256   1.00
H2       0.97117    0.69621    0.88588   1.00
H2       0.95295    0.61286    0.81604   1.00
H2       0.99895    0.65918    0.86912   1.00
H2       1.00536    0.64961    0.83601   1.00
C6       1.04582    0.76840    0.86369   1.00
C6       0.93904    0.54046    0.84067   1.00
H2       1.02864    0.80530    0.86152   1.00
H2       0.88440    0.50381    0.83996   1.00
C6       1.10866    0.80110    0.87833   1.00
C6       0.97738    0.50740    0.83008   1.00
H2       1.06329    0.76257    0.84877   1.00
H2       0.95180    0.54618    0.85680   1.00
C6       1.09072    0.82125    0.89895   1.00
C6       0.95380    0.48740    0.80780   1.00
C6       1.13733    0.75266    0.88215   1.00
C6       1.05569    0.55546    0.83055   1.00
C6       1.16587    0.86721    0.86837   1.00
C6       0.96075    0.44114    0.84167   1.00
H2       1.06928    0.85459    0.89675   1.00
H2       0.89854    0.45433    0.80692   1.00
H2       1.05369    0.77660    0.90737   1.00
H2       0.96773    0.53213    0.79845   1.00
H2       1.13588    0.84823    0.90850   1.00
H2       0.97726    0.46018    0.80100   1.00
H2       1.18394    0.77773    0.89117   1.00
H2       1.08210    0.53013    0.82445   1.00
H2       1.10070    0.70726    0.89040   1.00
H2       1.07063    0.60094    0.82143   1.00
H2       1.14905    0.73655    0.86784   1.00
H2       1.07345    0.57146    0.84604   1.00
H2       1.14846    0.90356    0.86553   1.00
H2       0.90598    0.40505    0.84161   1.00
H2       1.21081    0.89222    0.87810   1.00
H2       0.98607    0.41589    0.83475   1.00
H2       1.18176    0.85614    0.85391   1.00
H2       0.97747    0.45210    0.85743   1.00
C4       0.30886    0.12373    0.84907   1.00
C4       0.36047    0.15062    0.83378   1.00
C3       0.24715    0.12570    0.84733   1.00
C3       0.35099    0.17477    0.81478   1.00
C3       0.31851    0.09361    0.86691   1.00
C3       0.42428    0.15377    0.83733   1.00
C2       0.20300    0.06637    0.87953   1.00
C2       0.46600    0.20809    0.80322   1.00
C3       0.19562    0.09764    0.86202   1.00
C3       0.40218    0.20296    0.79999   1.00
C3       0.26462    0.06527    0.88146   1.00
C3       0.47522    0.18319    0.82192   1.00
H1       0.23762    0.14822    0.83541   1.00
H1       0.30629    0.17216    0.81090   1.00
C5       0.38077    0.09269    0.86992   1.00
C5       0.43578    0.12761    0.85581   1.00
H1       0.15220    0.10046    0.85983   1.00
H1       0.39225    0.21972    0.78664   1.00
H1       0.26939    0.04300    0.89427   1.00
H1       0.52140    0.18675    0.82395   1.00
C6       0.38734    0.05430    0.88777   1.00
C6       0.50588    0.13785    0.86029   1.00
H2       0.34050    0.00532    0.88920   1.00
H2       0.54421    0.18995    0.85639   1.00
H2       0.42470    0.03852    0.88490   1.00
H2       0.51429    0.13683    0.87649   1.00
C6       0.40596    0.09578    0.90808   1.00
C6       0.51987    0.08440    0.84948   1.00
H2       0.37501    0.12021    0.90963   1.00
H2       0.50220    0.07782    0.83377   1.00
C6       0.39925    0.05629    0.92823   1.00
C6       0.59505    0.09875    0.84927   1.00
H2       0.45850    0.13766    0.90680   1.00
H2       0.48779    0.03501    0.85671   1.00
C6       0.32391    0.00274    0.93290   1.00
C6       0.64229    0.16262    0.83642   1.00
C6       0.44228    0.02046    0.92758   1.00
C6       0.62442    0.10800    0.87101   1.00
C6       0.42597    0.10822    0.94601   1.00
C6       0.59579    0.03674    0.83949   1.00
H2       0.29194    0.02625    0.93313   1.00
H2       0.62235    0.15816    0.82107   1.00
H2       0.30308    -0.03780   0.92161   1.00
H2       0.64749    0.20890    0.84315   1.00
H2       0.31924    -0.02115   0.94763   1.00
H2       0.69340    0.16945    0.83521   1.00
H2       0.44115    -0.00278   0.94219   1.00
H2       0.67497    0.11310    0.87080   1.00
H2       0.42262    -0.01991   0.91622   1.00
H2       0.62940    0.15377    0.87809   1.00
H2       0.49531    0.05681    0.92390   1.00
H2       0.59134    0.06433    0.88050   1.00
H2       0.39675    0.13450    0.94727   1.00
H2       0.57616    0.02839    0.82400   1.00
H2       0.42190    0.08295    0.96047   1.00
H2       0.64740    0.04456    0.83888   1.00
H2       0.47945    0.14665    0.94379   1.00
H2       0.56438    -0.00979   0.84813   1.00
C4       0.87578    0.18399    0.84891   1.00
C4       0.84907    0.20860    0.83352   1.00
C3       0.86575    0.11666    0.84861   1.00
C3       0.81675    0.17029    0.81572   1.00
C3       0.91402    0.22765    0.86534   1.00
C3       0.85452    0.27396    0.83576   1.00
C2       0.93260    0.13527    0.87946   1.00
C2       0.79205    0.25685    0.80288   1.00
C3       0.89352    0.09303    0.86335   1.00
C3       0.78878    0.19341    0.80090   1.00
C3       0.94176    0.20176    0.87998   1.00
C3       0.82502    0.29548    0.82037   1.00
H1       0.83731    0.08203    0.83779   1.00
H1       0.81294    0.12444    0.81276   1.00
C5       0.92340    0.29498    0.86691   1.00
C5       0.88902    0.31610    0.85293   1.00
H1       0.88467    0.04402    0.86224   1.00
H1       0.76590    0.16323    0.78845   1.00
H1       0.96963    0.23143    0.89181   1.00
H1       0.82746    0.34143    0.82149   1.00
C6       0.96997    0.34307    0.88313   1.00
C6       0.88805    0.38179    0.85620   1.00
H2       1.01622    0.33961    0.88382   1.00
H2       0.83674    0.37264    0.85335   1.00
H2       0.99016    0.39612    0.87888   1.00
H2       0.89508    0.39667    0.87208   1.00
C6       0.93482    0.33058    0.90441   1.00
C6       0.94259    0.44267    0.84320   1.00
H2       0.90591    0.27586    0.90753   1.00
H2       0.94259    0.42525    0.82773   1.00
C6       0.98165    0.36643    0.92317   1.00
C6       0.93649    0.50844    0.84185   1.00
H2       0.89675    0.34667    0.90349   1.00
H2       0.99283    0.45694    0.84932   1.00
C6       1.03028    0.33823    0.92754   1.00
C6       0.87115    0.49495    0.83033   1.00
C6       1.02427    0.44473    0.92027   1.00
C6       0.93694    0.53759    0.86314   1.00
C6       0.93574    0.35201    0.94213   1.00
C6       0.99874    0.56362    0.82986   1.00
H2       1.00180    0.28286    0.92933   1.00
H2       0.86875    0.47327    0.81535   1.00
H2       1.06691    0.35034    0.91532   1.00
H2       0.82522    0.45964    0.83859   1.00
H2       1.05931    0.36007    0.94144   1.00
H2       0.86974    0.54203    0.82824   1.00
H2       1.05301    0.46966    0.93398   1.00
H2       0.93759    0.58600    0.86200   1.00
H2       1.06085    0.45790    0.90795   1.00
H2       0.89162    0.50264    0.87174   1.00
H2       0.99133    0.46570    0.91675   1.00
H2       0.98173    0.54622    0.87174   1.00
H2       0.90500    0.29730    0.94499   1.00
H2       1.00041    0.54584    0.81459   1.00
H2       0.96621    0.37568    0.95568   1.00
H2       0.99654    0.61051    0.82839   1.00
H2       0.90112    0.37199    0.94013   1.00
H2       1.04648    0.57639    0.83747   1.00
C4       0.01540    0.48541    0.31469   1.00
C4       -0.03603   0.46539    0.32992   1.00
C3       0.01730    0.43789    0.30092   1.00
C3       -0.09302   0.39802    0.33108   1.00
C3       0.06737    0.55540    0.31296   1.00
C3       -0.03116   0.51398    0.34466   1.00
C2       0.11741    0.52633    0.28324   1.00
C2       -0.13829   0.42395    0.36131   1.00
C3       0.06648    0.45764    0.28560   1.00
C3       -0.14247   0.37771    0.34634   1.00
C3       0.11631    0.57348    0.29708   1.00
C3       -0.08238   0.49114    0.36001   1.00
H1       -0.01658   0.38702    0.30164   1.00
H1       -0.10111   0.36134    0.32077   1.00
C5       0.06979    0.60514    0.32692   1.00
C5       0.02351    0.58330    0.34376   1.00
H1       0.06491    0.42093    0.27611   1.00
H1       -0.18219   0.32829    0.34639   1.00
H1       0.15378    0.62281    0.29528   1.00
H1       -0.08041   0.52406    0.37084   1.00
C6       0.12055    0.67996    0.32359   1.00
C6       0.03209    0.63224    0.36066   1.00
H2       0.12112    0.69190    0.30756   1.00
H2       0.02494    0.60658    0.37519   1.00
H2       0.10353    0.71249    0.33049   1.00
H2       0.08452    0.67359    0.36187   1.00
C6       0.19382    0.70166    0.33159   1.00
C6       -0.01595   0.66317    0.35843   1.00
H2       0.20743    0.66348    0.32715   1.00
H2       -0.06719   0.62289    0.35427   1.00
C6       0.25351    0.77326    0.32504   1.00
C6       -0.02266   0.70210    0.37711   1.00
H2       0.19168    0.69987    0.34815   1.00
H2       0.00202    0.69799    0.34550   1.00
C6       0.26727    0.77650    0.30190   1.00
C6       -0.05816   0.65350    0.39528   1.00
C6       0.23920    0.83114    0.33096   1.00
C6       0.04768    0.76108    0.38401   1.00
C6       0.31951    0.78635    0.33611   1.00
C6       -0.06740   0.73334    0.37090   1.00
H2       0.27647    0.73557    0.29717   1.00
H2       -0.10753   0.61065    0.39082   1.00
H2       0.22434    0.77188    0.29316   1.00
H2       -0.02733   0.63289    0.40124   1.00
H2       0.31190    0.82487    0.29770   1.00
H2       -0.06685   0.68010    0.40770   1.00
H2       0.28311    0.88110    0.32764   1.00
H2       0.04202    0.79089    0.39608   1.00
H2       0.19591    0.82701    0.32252   1.00
H2       0.07961    0.74152    0.38985   1.00
H2       0.22794    0.82913    0.34712   1.00
H2       0.07438    0.79529    0.37138   1.00
H2       0.33234    0.74719    0.33227   1.00
H2       -0.11803   0.69365    0.36609   1.00
H2       0.36287    0.83568    0.33191   1.00
H2       -0.07397   0.76075    0.38352   1.00
H2       0.31347    0.78606    0.35254   1.00
H2       -0.04428   0.76925    0.35838   1.00
C4       0.47010    0.98456    0.31470   1.00
C4       0.50150    1.03596    0.32994   1.00
C3       0.42134    0.98320    0.30076   1.00
C3       0.49183    1.09342    0.33095   1.00
C3       0.48743    0.93206    0.31314   1.00
C3       0.54446    1.03057    0.34484   1.00
C2       0.40906    0.88259    0.28324   1.00
C2       0.56228    1.13819    0.36134   1.00
C3       0.39194    0.93403    0.28544   1.00
C3       0.52095    1.14285    0.34621   1.00
C3       0.45662    0.88315    0.29725   1.00
C3       0.57286    1.08181    0.36019   1.00
H1       0.40485    1.01748    0.30135   1.00
H1       0.46381    1.10187    0.32052   1.00
C5       0.53403    0.92910    0.32727   1.00
C5       0.55841    0.97541    0.34410   1.00
H1       0.35730    0.93600    0.27582   1.00
H1       0.51179    1.18293    0.34615   1.00
H1       0.46801    0.84532    0.29556   1.00
H1       0.60329    1.07948    0.37113   1.00
C6       0.55744    0.87774    0.32413   1.00
C6       0.59793    0.96635    0.36116   1.00
H2       0.56919    0.87699    0.30813   1.00
H2       0.57921    0.97380    0.37561   1.00
H2       0.60669    0.89429    0.33116   1.00
H2       0.58625    0.91373    0.36244   1.00
C6       0.50508    0.80468    0.33209   1.00
C6       0.67706    1.01372    0.35912   1.00
H2       0.45356    0.79159    0.32749   1.00
H2       0.68868    1.06511    0.35489   1.00
C6       0.51638    0.74447    0.32569   1.00
C6       0.72197    1.01997    0.37794   1.00
H2       0.50498    0.80687    0.34864   1.00
H2       0.69396    0.99540    0.34628   1.00
C6       0.50642    0.73069    0.30255   1.00
C6       0.70886    1.05589    0.39599   1.00
C6       0.58813    0.75802    0.33185   1.00
C6       0.70964    0.94937    0.38494   1.00
C6       0.46269    0.67875    0.33671   1.00
C6       0.79820    1.06405    0.37191   1.00
H2       0.45662    0.72202    0.29766   1.00
H2       0.71606    1.10546    0.39145   1.00
H2       0.54526    0.77339    0.29386   1.00
H2       0.65720    1.02551    0.40184   1.00
H2       0.50972    0.68573    0.29845   1.00
H2       0.74369    1.06425    0.40852   1.00
H2       0.59372    0.71377    0.32864   1.00
H2       0.74462    0.95467    0.39712   1.00
H2       0.62782    0.80107    0.32345   1.00
H2       0.65791    0.91788    0.39066   1.00
H2       0.59700    0.76928    0.34801   1.00
H2       0.71715    0.92238    0.37239   1.00
H2       0.41097    0.66645    0.33271   1.00
H2       0.80982    1.11484    0.36704   1.00
H2       0.46822    0.63504    0.33262   1.00
H2       0.83169    1.07029    0.38464   1.00
H2       0.46801    0.68480    0.35315   1.00
H2       0.81100    1.04061    0.35948   1.00
C4       0.51448    0.52990    0.31470   1.00
C4       0.53448    0.49850    0.32994   1.00
C3       0.56188    0.57870    0.30077   1.00
C3       0.60162    0.50821    0.33096   1.00
C3       0.44463    0.51254    0.31313   1.00
C3       0.48612    0.45551    0.34483   1.00
C2       0.47355    0.59095    0.28324   1.00
C2       0.57593    0.43772    0.36134   1.00
C3       0.54212    0.60810    0.28545   1.00
C3       0.62193    0.47908    0.34622   1.00
C3       0.42654    0.54335    0.29724   1.00
C3       0.50895    0.42711    0.36019   1.00
H1       0.61266    0.59521    0.30136   1.00
H1       0.63810    0.53625    0.32053   1.00
C5       0.39506    0.46591    0.32725   1.00
C5       0.41700    0.44153    0.34408   1.00
H1       0.57873    0.64276    0.27583   1.00
H1       0.67117    0.48827    0.34616   1.00
H1       0.37731    0.53194    0.29555   1.00
H1       0.47619    0.39666    0.37112   1.00
C6       0.32030    0.44247    0.32410   1.00
C6       0.36839    0.40197    0.36114   1.00
H2       0.30782    0.43074    0.30811   1.00
H2       0.39455    0.42068    0.37559   1.00
H2       0.28760    0.39320    0.33113   1.00
H2       0.32744    0.41362    0.36241   1.00
C6       0.29955    0.49479    0.33207   1.00
C6       0.33667    0.32284    0.35908   1.00
H2       0.33797    0.54633    0.32747   1.00
H2       0.37647    0.31126    0.35486   1.00
C6       0.22804    0.48347    0.32566   1.00
C6       0.29800    0.27790    0.37791   1.00
H2       0.30182    0.49488    0.34862   1.00
H2       0.30148    0.30595    0.34624   1.00
C6       0.22424    0.49345    0.30252   1.00
C6       0.34701    0.29101    0.39596   1.00
C6       0.16985    0.41170    0.33181   1.00
C6       0.23970    0.29018    0.38490   1.00
C6       0.21596    0.53712    0.33669   1.00
C6       0.26590    0.20168    0.37187   1.00
H2       0.26537    0.54327    0.29764   1.00
H2       0.38941    0.28384    0.39143   1.00
H2       0.22814    0.45464    0.29383   1.00
H2       0.36826    0.34266    0.40181   1.00
H2       0.17599    0.49014    0.29842   1.00
H2       0.32054    0.25616    0.40848   1.00
H2       0.12000    0.40608    0.32859   1.00
H2       0.21002    0.25519    0.39707   1.00
H2       0.17325    0.37203    0.32341   1.00
H2       0.25991    0.34191    0.39063   1.00
H2       0.17223    0.40281    0.34797   1.00
H2       0.20522    0.28268    0.37235   1.00
H2       0.25537    0.58885    0.33269   1.00
H2       0.30509    0.19009    0.36700   1.00
H2       0.16671    0.53157    0.33259   1.00
H2       0.23863    0.16817    0.38459   1.00
H2       0.21667    0.53178    0.35312   1.00
H2       0.22967    0.18889    0.35943   1.00
C4       0.17846    0.31657    0.14838   1.00
C4       0.20188    0.36967    0.16318   1.00
C3       0.11166    0.25847    0.14893   1.00
C3       0.15805    0.37200    0.17827   1.00
C3       0.22288    0.32084    0.13232   1.00
C3       0.27163    0.42296    0.16310   1.00
C2       0.12988    0.21080    0.11789   1.00
C2       0.24996    0.47519    0.19374   1.00
C3       0.08787    0.20731    0.13412   1.00
C3       0.18130    0.42290    0.19316   1.00
C3       0.19656    0.26784    0.11747   1.00
C3       0.29337    0.47365    0.17859   1.00
H1       0.07800    0.25080    0.16023   1.00
H1       0.10742    0.33718    0.17889   1.00
C5       0.29163    0.37666    0.13144   1.00
C5       0.31752    0.42494    0.14777   1.00
H1       0.03907    0.16684    0.13533   1.00
H1       0.14718    0.42156    0.20368   1.00
H1       0.22645    0.26932    0.10575   1.00
H1       0.34268    0.51210    0.17912   1.00
C6       0.33564    0.38432    0.11323   1.00
C6       0.39267    0.47735    0.14913   1.00
H2       0.30553    0.37481    0.09947   1.00
H2       0.40957    0.48019    0.16476   1.00
H2       0.37558    0.43696    0.11105   1.00
H2       0.42386    0.46057    0.14126   1.00
C6       0.36885    0.33804    0.11435   1.00
C6       0.41013    0.54917    0.14084   1.00
H2       0.33086    0.28698    0.11945   1.00
H2       0.37258    0.56215    0.14643   1.00
C6       0.40265    0.33015    0.09460   1.00
C6       0.48276    0.61072    0.14555   1.00
H2       0.40743    0.35826    0.12630   1.00
H2       0.40335    0.54498    0.12440   1.00
C6       0.34905    0.29164    0.07777   1.00
C6       0.49269    0.62721    0.16856   1.00
C6       0.45816    0.40020    0.08632   1.00
C6       0.53976    0.59739    0.13792   1.00
C6       0.43729    0.28761    0.09970   1.00
C6       0.49080    0.67477    0.13442   1.00
H2       0.30850    0.24239    0.08324   1.00
H2       0.45256    0.63579    0.17449   1.00
H2       0.32560    0.32076    0.07255   1.00
H2       0.49185    0.58584    0.17721   1.00
H2       0.37235    0.28223    0.06459   1.00
H2       0.54156    0.67300    0.17153   1.00
H2       0.48473    0.39391    0.07342   1.00
H2       0.59000    0.64240    0.13996   1.00
H2       0.43576    0.43045    0.08120   1.00
H2       0.53935    0.55564    0.14627   1.00
H2       0.49580    0.42897    0.09801   1.00
H2       0.53313    0.58424    0.12184   1.00
H2       0.40007    0.23724    0.10542   1.00
H2       0.45209    0.68687    0.13943   1.00
H2       0.46130    0.28030    0.08631   1.00
H2       0.54068    0.71933    0.13736   1.00
H2       0.47671    0.31289    0.11122   1.00
H2       0.48568    0.66678    0.11804   1.00
C4       0.69102    0.87634    0.15090   1.00
C4       0.64176    0.84809    0.16682   1.00
C3       0.68472    0.91385    0.13451   1.00
C3       0.58676    0.86137    0.16862   1.00
C3       0.74907    0.86716    0.15111   1.00
C3       0.64697    0.80487    0.18166   1.00
C2       0.79230    0.93636    0.11922   1.00
C2       0.54021    0.78830    0.19843   1.00
C3       0.73390    0.94328    0.11919   1.00
C3       0.53728    0.83218    0.18387   1.00
C3       0.79818    0.89827    0.13528   1.00
C3       0.59532    0.77586    0.19688   1.00
H1       0.64381    0.92061    0.13297   1.00
H1       0.58097    0.89329    0.15904   1.00
C5       0.75674    0.82748    0.16675   1.00
C5       0.70282    0.79193    0.18114   1.00
H1       0.72651    0.96995    0.10783   1.00
H1       0.49873    0.84357    0.18429   1.00
H1       0.84037    0.89327    0.13499   1.00
H1       0.59702    0.74451    0.20762   1.00
C6       0.82184    0.82426    0.16800   1.00
C6       0.70375    0.74045    0.19560   1.00
H2       0.86528    0.87521    0.16567   1.00
H2       0.65299    0.69556    0.19619   1.00
H2       0.83113    0.81296    0.18331   1.00
H2       0.73387    0.71910    0.18968   1.00
C6       0.82314    0.77121    0.15300   1.00
C6       0.73053    0.77024    0.21728   1.00
H2       0.80423    0.77573    0.13816   1.00
H2       0.70757    0.80040    0.22216   1.00
C6       0.89298    0.77406    0.14969   1.00
C6       0.71965    0.71854    0.23463   1.00
H2       0.78620    0.72028    0.15844   1.00
H2       0.78509    0.80658    0.21604   1.00
C6       0.94547    0.84087    0.13893   1.00
C6       0.64297    0.67177    0.23963   1.00
C6       0.92357    0.76714    0.16996   1.00
C6       0.75141    0.67381    0.22920   1.00
C6       0.88098    0.71358    0.13583   1.00
C6       0.75531    0.75943    0.25412   1.00
H2       0.92496    0.84782    0.12470   1.00
H2       0.61878    0.70185    0.24322   1.00
H2       0.95950    0.88536    0.14840   1.00
H2       0.61548    0.63844    0.22696   1.00
H2       0.99227    0.84029    0.13542   1.00
H2       0.63616    0.63922    0.25266   1.00
H2       0.96968    0.76427    0.16735   1.00
H2       0.74787    0.64142    0.24194   1.00
H2       0.93735    0.81093    0.17976   1.00
H2       0.72499    0.64049    0.21639   1.00
H2       0.88707    0.72120    0.17805   1.00
H2       0.80509    0.70552    0.22519   1.00
H2       0.86001    0.71644    0.12119   1.00
H2       0.73421    0.79142    0.25875   1.00
H2       0.92849    0.71363    0.13295   1.00
H2       0.74874    0.72546    0.26674   1.00
H2       0.84534    0.66480    0.14280   1.00
H2       0.80995    0.79247    0.25167   1.00
C4       0.12440    0.81635    0.15114   1.00
C4       0.15319    0.79582    0.16703   1.00
C3       0.07587    0.76900    0.13714   1.00
C3       0.13029    0.72600    0.17135   1.00
C3       0.14438    0.88673    0.14891   1.00
C3       0.20692    0.84636    0.17923   1.00
C2       0.06362    0.85733    0.11961   1.00
C2       0.21364    0.75431    0.19851   1.00
C3       0.04608    0.78869    0.12191   1.00
C3       0.15973    0.70575    0.18654   1.00
C3       0.11256    0.90462    0.13327   1.00
C3       0.23579    0.82362    0.19447   1.00
H1       0.06085    0.71852    0.13736   1.00
H1       0.09089    0.68721    0.16377   1.00
C5       0.19513    0.93713    0.16200   1.00
C5       0.23019    0.91737    0.17615   1.00
H1       0.01119    0.75203    0.11235   1.00
H1       0.14108    0.65459    0.18885   1.00
H1       0.12509    0.95407    0.13130   1.00
H1       0.27439    0.85804    0.20336   1.00
C6       0.21044    1.01025    0.16089   1.00
C6       0.29181    0.97046    0.18768   1.00
H2       0.16261    1.01062    0.15981   1.00
H2       0.33112    0.95609    0.18760   1.00
H2       0.23106    1.03712    0.17509   1.00
H2       0.31713    1.01892    0.17969   1.00
C6       0.26042    1.05178    0.14322   1.00
C6       0.27456    0.98259    0.20978   1.00
H2       0.24558    1.02082    0.12943   1.00
H2       0.24062    0.93354    0.21696   1.00
C6       0.26802    1.12254    0.13775   1.00
C6       0.33567    1.02455    0.22455   1.00
H2       0.31078    1.05976    0.14714   1.00
H2       0.24473    1.00830    0.20864   1.00
C6       0.20102    1.11475    0.12889   1.00
C6       0.37447    0.98609    0.22959   1.00
C6       0.28993    1.17060    0.15639   1.00
C6       0.38641    1.09566    0.21575   1.00
C6       0.32413    1.15692    0.12127   1.00
C6       0.30712    1.03537    0.24476   1.00
H2       0.18358    1.08020    0.11589   1.00
H2       0.33982    0.93520    0.23554   1.00
H2       0.16033    1.09470    0.14012   1.00
H2       0.39948    0.98041    0.21624   1.00
H2       0.20818    1.16379    0.12382   1.00
H2       0.41391    1.01349    0.24097   1.00
H2       0.29981    1.22131    0.15210   1.00
H2       0.42612    1.12630    0.22674   1.00
H2       0.25008    1.15104    0.16791   1.00
H2       0.41153    1.09106    0.20223   1.00
H2       0.33624    1.17582    0.16317   1.00
H2       0.36012    1.12327    0.21167   1.00
H2       0.31079    1.12531    0.10766   1.00
H2       0.27144    0.98657    0.25173   1.00
H2       0.33102    1.20643    0.11683   1.00
H2       0.34793    1.06412    0.25565   1.00
H2       0.37311    1.16508    0.12677   1.00
H2       0.28028    1.06354    0.24225   1.00
C4       0.98473    0.51494    0.68534   1.00
C4       1.03762    0.53916    0.67045   1.00
C3       0.94145    0.44419    0.68945   1.00
C3       1.05560    0.49501    0.66019   1.00
C3       0.97389    0.56255    0.69667   1.00
C3       1.07456    0.61011    0.66547   1.00
C2       0.87992    0.46603    0.71613   1.00
C2       1.14231    0.58755    0.63963   1.00
C3       0.89084    0.42037    0.70444   1.00
C3       1.10609    0.51828    0.64517   1.00
C3       0.92206    0.53622    0.71187   1.00
C3       1.12535    0.63169    0.65001   1.00
H1       0.94462    0.40728    0.68157   1.00
H1       1.03315    0.44440    0.66338   1.00
C5       1.01395    0.63424    0.69262   1.00
C5       1.06072    0.65747    0.67590   1.00
H1       0.86150    0.36873    0.70672   1.00
H1       1.11646    0.48381    0.63827   1.00
H1       0.91315    0.56849    0.72034   1.00
H1       1.15237    0.68165    0.64595   1.00
C6       1.00692    0.68441    0.70615   1.00
C6       1.09500    0.73105    0.66899   1.00
H2       1.00523    0.66925    0.72192   1.00
H2       1.09368    0.73248    0.65248   1.00
H2       1.05277    0.73429    0.70598   1.00
H2       1.06542    0.75503    0.67311   1.00
C6       0.94415    0.69271    0.70059   1.00
C6       1.16936    0.77537    0.67736   1.00
H2       0.89962    0.64254    0.69783   1.00
H2       1.19661    0.74709    0.67593   1.00
C6       0.92291    0.73105    0.71613   1.00
C6       1.21494    0.84755    0.66775   1.00
H2       0.95498    0.71934    0.68607   1.00
H2       1.16581    0.78176    0.69366   1.00
C6       0.89616    0.69066    0.73623   1.00
C6       1.23170    0.84259    0.64521   1.00
C6       0.98280    0.80346    0.72083   1.00
C6       1.18078    0.89199    0.66930   1.00
C6       0.86413    0.73859    0.70673   1.00
C6       1.28348    0.88432    0.67951   1.00
H2       0.85453    0.63889    0.73339   1.00
H2       1.25489    0.81058    0.64357   1.00
H2       0.93621    0.68706    0.74429   1.00
H2       1.18610    0.82096    0.63580   1.00
H2       0.87709    0.71539    0.74640   1.00
H2       1.26727    0.89281    0.63906   1.00
H2       0.96618    0.83150    0.73052   1.00
H2       1.21496    0.94371    0.66388   1.00
H2       1.02377    0.80096    0.72874   1.00
H2       1.13459    0.87080    0.66012   1.00
H2       1.00352    0.83251    0.70689   1.00
H2       1.16715    0.89513    0.68497   1.00
H2       0.82016    0.68875    0.70331   1.00
H2       1.31008    0.85533    0.67872   1.00
H2       0.84718    0.76474    0.71710   1.00
H2       1.31733    0.93492    0.67326   1.00
H2       0.88033    0.76792    0.69267   1.00
H2       1.27512    0.89062    0.69548   1.00
C4       0.53012    0.01531    0.68533   1.00
C4       0.50141    -0.03760   0.67045   1.00
C3       0.50323    0.05919    0.68926   1.00
C3       0.43974    -0.05497   0.66000   1.00
C3       0.58802    0.02554    0.69684   1.00
C3       0.53491    -0.07518   0.66566   1.00
C2       0.58606    0.12016    0.71611   1.00
C2       0.44508    -0.14232   0.63964   1.00
C3       0.53003    0.10982    0.70424   1.00
C3       0.41251    -0.10547   0.64499   1.00
C3       0.61355    0.07742    0.71203   1.00
C3       0.50571    -0.12596   0.65020   1.00
H1       0.46357    0.05645    0.68125   1.00
H1       0.41192    -0.03204   0.66304   1.00
C5       0.61909    -0.01514   0.69298   1.00
C5       0.59561    -0.06196   0.67627   1.00
H1       0.50815    0.13960    0.70639   1.00
H1       0.36801    -0.11539   0.63795   1.00
H1       0.65436    0.08592    0.72062   1.00
H1       0.52830    -0.15343   0.64627   1.00
C6       0.67564    -0.00872   0.70670   1.00
C6       0.63446    -0.09693   0.66958   1.00
H2       0.66184    -0.00681   0.72242   1.00
H2       0.63769    -0.09568   0.65307   1.00
H2       0.67911    -0.05489   0.70664   1.00
H2       0.68793    -0.06780   0.67383   1.00
C6       0.74720    0.05356    0.70128   1.00
C6       0.60347    -0.17135   0.67799   1.00
H2       0.74220    0.09841    0.69840   1.00
H2       0.54799    -0.19810   0.67641   1.00
C6       0.80623    0.07426    0.71697   1.00
C6       0.62963    -0.21754   0.66856   1.00
H2       0.76319    0.04244    0.68682   1.00
H2       0.61293    -0.16784   0.69431   1.00
C6       0.79242    0.10139    0.73698   1.00
C6       0.60848    -0.23421   0.64598   1.00
C6       0.81781    0.01388    0.72185   1.00
C6       0.70812    -0.18412   0.67032   1.00
C6       0.87312    0.13256    0.70770   1.00
C6       0.59691    -0.28607   0.68035   1.00
H2       0.78292    0.14338    0.73402   1.00
H2       0.55340    -0.25687   0.64418   1.00
H2       0.74832    0.06165    0.74497   1.00
H2       0.63313    -0.18865   0.63656   1.00
H2       0.83588    0.12007    0.74726   1.00
H2       0.62280    -0.27018   0.63995   1.00
H2       0.86213    0.03008    0.73165   1.00
H2       0.72530    -0.21872   0.66503   1.00
H2       0.77389    -0.02680   0.72968   1.00
H2       0.73378    -0.13798   0.66114   1.00
H2       0.82624    -0.00711   0.70797   1.00
H2       0.72451    -0.17056   0.68602   1.00
H2       0.86790    0.17685    0.70417   1.00
H2       0.54135    -0.31217   0.67941   1.00
H2       0.91586    0.14913    0.71818   1.00
H2       0.61332    -0.32034   0.67422   1.00
H2       0.88637    0.11607    0.69372   1.00
H2       0.61111    -0.27780   0.69635   1.00
C4       0.48517    0.46987    0.68533   1.00
C4       0.46097    0.49858    0.67045   1.00
C3       0.55595    0.49680    0.68927   1.00
C3       0.50527    0.56027    0.66001   1.00
C3       0.43751    0.41195    0.69683   1.00
C3       0.38990    0.46506    0.66565   1.00
C2       0.53408    0.41394    0.71611   1.00
C2       0.41259    0.55492    0.63964   1.00
C3       0.57977    0.46999    0.70425   1.00
C3       0.48200    0.58750    0.64499   1.00
C3       0.46385    0.38642    0.71203   1.00
C3       0.36832    0.49426    0.65019   1.00
H1       0.59287    0.53647    0.68126   1.00
H1       0.55601    0.58811    0.66306   1.00
C5       0.36575    0.38085    0.69297   1.00
C5       0.34242    0.40434    0.67626   1.00
H1       0.63144    0.49189    0.70640   1.00
H1       0.51658    0.63202    0.63797   1.00
H1       0.43155    0.34560    0.72061   1.00
H1       0.31826    0.47165    0.64626   1.00
C6       0.31563    0.32428    0.70668   1.00
C6       0.26862    0.36547    0.66955   1.00
H2       0.33132    0.33806    0.72240   1.00
H2       0.26667    0.36226    0.65305   1.00
H2       0.26598    0.32078    0.70661   1.00
H2       0.24428    0.31199    0.67380   1.00
C6       0.30640    0.25274    0.70124   1.00
C6       0.22515    0.39642    0.67796   1.00
H2       0.35626    0.25777    0.69838   1.00
H2       0.25386    0.45190    0.67639   1.00
C6       0.26806    0.19368    0.71694   1.00
C6       0.15280    0.37023    0.66852   1.00
H2       0.27930    0.23676    0.68679   1.00
H2       0.21917    0.38693    0.69428   1.00
C6       0.30897    0.20749    0.73694   1.00
C6       0.15730    0.39141    0.64595   1.00
C6       0.19607    0.18206    0.72180   1.00
C6       0.10776    0.29174    0.67027   1.00
C6       0.25952    0.12682    0.70766   1.00
C6       0.11695    0.40291    0.68031   1.00
H2       0.36048    0.21702    0.73399   1.00
H2       0.18970    0.44650    0.64416   1.00
H2       0.31330    0.25156    0.74493   1.00
H2       0.17824    0.36679    0.63653   1.00
H2       0.28419    0.16401    0.74722   1.00
H2       0.10702    0.37708    0.63991   1.00
H2       0.16797    0.13773    0.73160   1.00
H2       0.05598    0.27454    0.66498   1.00
H2       0.19929    0.22596    0.72964   1.00
H2       0.12827    0.26611    0.66109   1.00
H2       0.16668    0.17363    0.70792   1.00
H2       0.10491    0.27533    0.68597   1.00
H2       0.30904    0.13207    0.70413   1.00
H2       0.14638    0.45847    0.67937   1.00
H2       0.23335    0.08406    0.71813   1.00
H2       0.06627    0.38649    0.67418   1.00
H2       0.22980    0.11357    0.69367   1.00
H2       0.11100    0.38869    0.69631   1.00
C4       0.48915    0.02650    0.18199   1.00
C4       0.46604    -0.02333   0.16619   1.00
C3       0.55255    0.04960    0.19212   1.00
C3       0.50768    -0.04819   0.15797   1.00
C3       0.44789    0.05480    0.18811   1.00
C3       0.39889    -0.04982   0.15809   1.00
C2       0.53748    0.12971    0.21326   1.00
C2       0.41818    -0.12656   0.13493   1.00
C3       0.57625    0.09987    0.20721   1.00
C3       0.48449    -0.09846   0.14290   1.00
C3       0.47404    0.10615    0.20346   1.00
C3       0.37708    -0.10124   0.14282   1.00
H1       0.58359    0.03028    0.18906   1.00
H1       0.55668    -0.03021   0.16250   1.00
C5       0.38229    0.03150    0.17906   1.00
C5       0.35563    -0.02470   0.16515   1.00
H1       0.62255    0.11451    0.21388   1.00
H1       0.51693    -0.11443   0.13767   1.00
H1       0.44641    0.12781    0.20812   1.00
H1       0.32953    -0.12165   0.13679   1.00
C6       0.34246    0.06694    0.18412   1.00
C6       0.28232    -0.05825   0.15803   1.00
H2       0.37699    0.12190    0.18400   1.00
H2       0.26033    -0.11343   0.15838   1.00
H2       0.30704    0.06087    0.17208   1.00
H2       0.25019    -0.05105   0.16883   1.00
C6       0.30237    0.04234    0.20463   1.00
C6       0.27429    -0.03285   0.13664   1.00
H2       0.33507    0.03882    0.21619   1.00
H2       0.31332    -0.03053   0.12638   1.00
C6       0.27200    0.08547    0.21362   1.00
C6       0.20361    -0.07430   0.12579   1.00
H2       0.26069    -0.00987   0.20244   1.00
H2       0.28578    0.01987    0.13827   1.00
C6       0.32885    0.15748    0.22023   1.00
C6       0.18823    -0.14700   0.11994   1.00
C6       0.22397    0.09261    0.19834   1.00
C6       0.14480    -0.07965   0.13913   1.00
C6       0.22965    0.04856    0.23278   1.00
C6       0.20544    -0.03671   0.10590   1.00
H2       0.36430    0.15422    0.23078   1.00
H2       0.22938    -0.14502   0.11079   1.00
H2       0.35808    0.18788    0.20728   1.00
H2       0.18206    -0.17778   0.13332   1.00
H2       0.30734    0.18539    0.22776   1.00
H2       0.14120    -0.17377   0.11117   1.00
H2       0.19931    0.11852    0.20525   1.00
H2       0.09653    -0.10434   0.13088   1.00
H2       0.25220    0.12236    0.18515   1.00
H2       0.13823    -0.10976   0.15271   1.00
H2       0.18428    0.04263    0.19312   1.00
H2       0.15505    -0.02918   0.14381   1.00
H2       0.26142    0.04284    0.24418   1.00
H2       0.24575    -0.03219   0.09581   1.00
H2       0.20769    0.07704    0.23971   1.00
H2       0.15722    -0.06401   0.09769   1.00
H2       0.18776    -0.00217   0.22902   1.00
H2       0.21476    0.01457    0.10906   1.00
C4       0.98405    0.47078    0.18517   1.00
C4       1.03516    0.50207    0.16985   1.00
C3       0.98796    0.42935    0.20079   1.00
C3       1.09705    0.50008    0.17029   1.00
C3       0.92643    0.48066    0.18510   1.00
C3       1.02489    0.53699    0.15337   1.00
C2       0.88245    0.41022    0.21675   1.00
C2       1.13707    0.56243    0.13835   1.00
C3       0.93896    0.40022    0.21616   1.00
C3       1.14637    0.52900    0.15499   1.00
C3       0.87784    0.45042    0.20110   1.00
C3       1.07620    0.56544    0.13803   1.00
H1       1.02621    0.41823    0.20146   1.00
H1       1.10893    0.47812    0.18184   1.00
C5       0.91823    0.51948    0.16929   1.00
C5       0.96491    0.54316    0.15255   1.00
H1       0.94485    0.37109    0.22704   1.00
H1       1.18980    0.52559    0.15614   1.00
H1       0.83643    0.45668    0.20164   1.00
H1       1.07051    0.59026    0.12600   1.00
C6       0.86100    0.53559    0.17059   1.00
C6       0.95127    0.57382    0.13396   1.00
H2       0.85802    0.55092    0.18605   1.00
H2       0.96211    0.55330    0.12042   1.00
H2       0.87274    0.58135    0.16211   1.00
H2       0.89723    0.55598    0.13212   1.00
C6       0.79067    0.47554    0.16319   1.00
C6       0.99146    0.65376    0.13401   1.00
H2       0.78296    0.42742    0.16940   1.00
H2       1.04410    0.67222    0.13876   1.00
C6       0.72542    0.48022    0.16800   1.00
C6       0.99342    0.69084    0.11376   1.00
H2       0.79377    0.47103    0.14678   1.00
H2       0.96946    0.67075    0.14581   1.00
C6       0.71103    0.47582    0.19112   1.00
C6       1.03379    0.67811    0.09698   1.00
C6       0.73119    0.54671    0.15952   1.00
C6       0.92073    0.66850    0.10592   1.00
C6       0.66315    0.41900    0.15775   1.00
C6       1.03031    0.76881    0.11782   1.00
H2       0.70777    0.42993    0.19763   1.00
H2       1.08502    0.69233    0.10217   1.00
H2       0.75093    0.51968    0.19914   1.00
H2       1.00833    0.62471    0.09248   1.00
H2       0.66297    0.47435    0.19422   1.00
H2       1.03891    0.70790    0.08341   1.00
H2       0.68365    0.54722    0.16167   1.00
H2       0.92259    0.69815    0.09263   1.00
H2       0.77138    0.59134    0.16723   1.00
H2       0.89411    0.61493    0.10152   1.00
H2       0.74275    0.55178    0.14333   1.00
H2       0.89074    0.67561    0.11761   1.00
H2       0.65634    0.37063    0.16339   1.00
H2       1.08227    0.78739    0.12320   1.00
H2       0.61614    0.41977    0.16079   1.00
H2       1.03337    0.79704    0.10406   1.00
H2       0.66964    0.42004    0.14133   1.00
H2       1.00341    0.78124    0.12926   1.00
C4       0.52993    0.51452    0.18530   1.00
C4       0.49853    0.53453    0.17007   1.00
C3       0.57898    0.56198    0.19917   1.00
C3       0.50850    0.60176    0.16899   1.00
C3       0.51231    0.44462    0.18694   1.00
C3       0.45525    0.48608    0.15524   1.00
C2       0.59099    0.47359    0.21676   1.00
C2       0.43773    0.57598    0.13868   1.00
C3       0.60839    0.54221    0.21449   1.00
C3       0.47937    0.62207    0.15373   1.00
C3       0.54314    0.42653    0.20282   1.00
C3       0.42686    0.50891    0.13988   1.00
H1       0.59568    0.61279    0.19853   1.00
H1       0.53676    0.63832    0.17938   1.00
C5       0.46540    0.39498    0.17288   1.00
C5       0.44100    0.41688    0.15605   1.00
H1       0.64324    0.57887    0.22406   1.00
H1       0.48876    0.67139    0.15375   1.00
H1       0.53155    0.37726    0.20456   1.00
H1       0.39620    0.47609    0.12899   1.00
C6       0.44171    0.32019    0.17610   1.00
C6       0.40112    0.36814    0.13905   1.00
H2       0.43013    0.30793    0.19211   1.00
H2       0.41975    0.39409    0.12457   1.00
H2       0.39234    0.28756    0.16913   1.00
H2       0.41255    0.32703    0.13780   1.00
C6       0.49374    0.29906    0.16812   1.00
C6       0.32206    0.33673    0.14117   1.00
H2       0.54538    0.33739    0.17265   1.00
H2       0.31072    0.37672    0.14537   1.00
C6       0.48218    0.22751    0.17458   1.00
C6       0.27684    0.29795    0.12241   1.00
H2       0.49365    0.30115    0.15156   1.00
H2       0.30518    0.30169    0.15405   1.00
C6       0.49238    0.22394    0.19773   1.00
C6       0.28994    0.34680    0.10431   1.00
C6       0.41024    0.16945    0.16853   1.00
C6       0.28875    0.23938    0.11546   1.00
C6       0.53554    0.21504    0.16354   1.00
C6       0.20071    0.26619    0.12852   1.00
H2       0.54232    0.26499    0.20255   1.00
H2       0.28303    0.38938    0.10882   1.00
H2       0.45377    0.22813    0.20643   1.00
H2       0.34151    0.36780    0.09842   1.00
H2       0.48890    0.17564    0.20187   1.00
H2       0.25492    0.32028    0.09183   1.00
H2       0.40445    0.11956    0.17178   1.00
H2       0.25357    0.20965    0.10332   1.00
H2       0.37078    0.17314    0.17694   1.00
H2       0.34039    0.25934    0.10968   1.00
H2       0.40121    0.17168    0.15237   1.00
H2       0.28125    0.20501    0.12803   1.00
H2       0.58738    0.25435    0.16747   1.00
H2       0.18938    0.30558    0.13336   1.00
H2       0.52982    0.16575    0.16768   1.00
H2       0.16701    0.23887    0.11584   1.00
H2       0.53004    0.21558    0.14711   1.00
H2       0.18792    0.23009    0.14099   1.00
C4       0.69319    0.82214    0.65137   1.00
C4       0.64329    0.79891    0.66715   1.00
C3       0.71852    0.88693    0.64189   1.00
C3       0.62058    0.84149    0.67600   1.00
C3       0.71926    0.77960    0.64460   1.00
C3       0.61451    0.73068    0.67457   1.00
C2       0.79656    0.87057    0.62015   1.00
C2       0.53993    0.75097    0.69837   1.00
C3       0.76887    0.91066    0.62682   1.00
C3       0.57025    0.81828    0.69106   1.00
C3       0.77077    0.80582    0.62930   1.00
C3       0.56311    0.70890    0.68985   1.00
H1       0.70085    0.91902    0.64543   1.00
H1       0.64025    0.89118    0.67198   1.00
C5       0.69366    0.71271    0.65297   1.00
C5       0.63740    0.68632    0.66686   1.00
H1       0.78518    0.95797    0.62064   1.00
H1       0.55590    0.85143    0.69677   1.00
H1       0.79090    0.77727    0.62419   1.00
H1       0.54111    0.66060    0.69541   1.00
C6       0.72677    0.67121    0.64724   1.00
C6       0.60147    0.61219    0.67327   1.00
H2       0.78199    0.70414    0.64748   1.00
H2       0.54656    0.59208    0.67295   1.00
H2       0.71924    0.63405    0.65887   1.00
H2       0.60732    0.58033    0.66204   1.00
C6       0.70127    0.63357    0.62639   1.00
C6       0.62576    0.60066    0.69441   1.00
H2       0.69930    0.66830    0.61525   1.00
H2       0.62952    0.63924    0.70512   1.00
C6       0.74235    0.60182    0.61680   1.00
C6       0.58217    0.52914    0.70461   1.00
H2       0.64843    0.59298    0.62835   1.00
H2       0.67785    0.61039    0.69263   1.00
C6       0.81524    0.65754    0.61049   1.00
C6       0.51031    0.51579    0.71067   1.00
C6       0.74719    0.55093    0.63145   1.00
C6       0.57466    0.47085    0.69060   1.00
C6       0.70470    0.56224    0.59734   1.00
C6       0.61881    0.52731    0.72431   1.00
H2       0.81363    0.69495    0.60039   1.00
H2       0.51383    0.55667    0.72031   1.00
H2       0.84605    0.68469    0.62363   1.00
H2       0.48008    0.51222    0.69739   1.00
H2       0.84176    0.63529    0.60256   1.00
H2       0.48208    0.46800    0.71901   1.00
H2       0.77161    0.52547    0.62410   1.00
H2       0.54842    0.42177    0.69839   1.00
H2       0.77732    0.57705    0.64481   1.00
H2       0.54507    0.46686    0.67711   1.00
H2       0.69658    0.51194    0.63646   1.00
H2       0.62454    0.47975    0.68577   1.00
H2       0.70053    0.59609    0.58636   1.00
H2       0.62478    0.56712    0.73485   1.00
H2       0.73174    0.53945    0.58999   1.00
H2       0.59001    0.47839    0.73208   1.00
H2       0.65327    0.52121    0.60086   1.00
H2       0.66942    0.53505    0.72099   1.00
C4       0.12401    0.30846    0.65103   1.00
C4       0.15078    0.35989    0.66638   1.00
C3       0.13094    0.24934    0.65192   1.00
C3       0.17993    0.35243    0.68467   1.00
C3       0.08890    0.31563    0.63402   1.00
C3       0.14866    0.42143    0.66360   1.00
C2       0.06698    0.20278    0.62051   1.00
C2       0.20798    0.46527    0.69699   1.00
C3       0.10305    0.19789    0.63720   1.00
C3       0.20799    0.40357    0.69949   1.00
C3       0.06092    0.26189    0.61942   1.00
C3       0.17813    0.47242    0.67900   1.00
H1       0.15710    0.24177    0.66318   1.00
H1       0.18126    0.30928    0.68802   1.00
C5       0.08278    0.37537    0.63186   1.00
C5       0.11739    0.43068    0.64589   1.00
H1       0.10959    0.15638    0.63875   1.00
H1       0.22850    0.39517    0.71231   1.00
H1       0.03521    0.26491    0.60719   1.00
H1       0.17802    0.51705    0.67750   1.00
C6       0.03935    0.37896    0.61498   1.00
C6       0.12197    0.49881    0.64212   1.00
H2       -0.00806   0.33031    0.61402   1.00
H2       0.17369    0.53951    0.64536   1.00
H2       0.02080    0.41361    0.61868   1.00
H2       0.11732    0.50696    0.62609   1.00
C6       0.07712    0.40015    0.59404   1.00
C6       0.06767    0.50811    0.65427   1.00
H2       0.10437    0.37229    0.59155   1.00
H2       0.06506    0.49050    0.66986   1.00
C6       0.03310    0.39092    0.57472   1.00
C6       0.07698    0.58139    0.65515   1.00
H2       0.11674    0.45374    0.59508   1.00
H2       0.01767    0.47366    0.64772   1.00
C6       -0.01752   0.31460    0.57026   1.00
C6       0.14184    0.63143    0.66718   1.00
C6       -0.00699   0.42954    0.57673   1.00
C6       0.08038    0.61049    0.63364   1.00
C6       0.08153    0.42067    0.55618   1.00
C6       0.01463    0.57733    0.66629   1.00
H2       0.00910    0.28568    0.56908   1.00
H2       0.14153    0.61180    0.68234   1.00
H2       -0.05580   0.29144    0.58214   1.00
H2       0.18805    0.63997    0.65951   1.00
H2       -0.04456   0.30845    0.55601   1.00
H2       0.14535    0.68101    0.66891   1.00
H2       -0.03361   0.42684    0.56265   1.00
H2       0.08194    0.65940    0.63440   1.00
H2       -0.04518   0.40752    0.58870   1.00
H2       0.12600    0.61878    0.62562   1.00
H2       0.02733    0.48316    0.58029   1.00
H2       0.03595    0.57552    0.62470   1.00
H2       0.11062    0.39460    0.55396   1.00
H2       0.01030    0.55770    0.68167   1.00
H2       0.05306    0.41499    0.54226   1.00
H2       0.01900    0.62747    0.66740   1.00
H2       0.11769    0.47489    0.55825   1.00
H2       -0.03272   0.54375    0.65828   1.00
C4       0.18401    0.87579    0.65109   1.00
C4       0.20862    0.84907    0.66647   1.00
C3       0.11671    0.86585    0.65140   1.00
C3       0.17035    0.81685    0.68429   1.00
C3       0.22762    0.91394    0.63464   1.00
C3       0.27393    0.85442    0.66422   1.00
C2       0.13528    0.93262    0.62053   1.00
C2       0.25686    0.79205    0.69711   1.00
C3       0.09309    0.89363    0.63667   1.00
C3       0.19347    0.78887    0.69911   1.00
C3       0.20174    0.94168    0.62000   1.00
C3       0.29545    0.82493    0.67961   1.00
H1       0.08210    0.83748    0.66224   1.00
H1       0.12454    0.81311    0.68726   1.00
C5       0.29492    0.92321    0.63305   1.00
C5       0.31602    0.88882    0.64703   1.00
H1       0.04410    0.88484    0.63779   1.00
H1       0.16333    0.76607    0.71157   1.00
H1       0.23138    0.96949    0.60816   1.00
H1       0.34136    0.82730    0.67848   1.00
C6       0.34297    0.96969    0.61681   1.00
C6       0.38165    0.88775    0.64375   1.00
H2       0.33958    1.01598    0.61612   1.00
H2       0.37244    0.83642    0.64661   1.00
H2       0.39603    0.98983    0.62105   1.00
H2       0.39646    0.89471    0.62786   1.00
C6       0.33036    0.93446    0.59554   1.00
C6       0.44261    0.94228    0.65672   1.00
H2       0.27563    0.90560    0.59244   1.00
H2       0.42527    0.94236    0.67219   1.00
C6       0.36618    0.98121    0.57677   1.00
C6       0.50833    0.93609    0.65806   1.00
H2       0.34639    0.89634    0.59646   1.00
H2       0.45692    0.99252    0.65059   1.00
C6       0.33805    1.02989    0.57239   1.00
C6       0.49479    0.87076    0.66959   1.00
C6       0.44449    1.02375    0.57964   1.00
C6       0.53738    0.93642    0.63676   1.00
C6       0.35163    0.93521    0.55782   1.00
C6       0.56361    0.99834    0.67002   1.00
H2       0.28268    1.00147    0.57062   1.00
H2       0.47319    0.86844    0.68458   1.00
H2       0.35025    1.06658    0.58460   1.00
H2       0.45942    0.82482    0.66135   1.00
H2       0.35986    1.05886    0.55848   1.00
H2       0.54185    0.86929    0.67167   1.00
H2       0.46939    1.05242    0.56592   1.00
H2       0.58576    0.93701    0.63789   1.00
H2       0.45775    1.06038    0.59195   1.00
H2       0.50235    0.89109    0.62818   1.00
H2       0.46542    0.99077    0.58316   1.00
H2       0.54603    0.98121    0.62815   1.00
H2       0.29690    0.90453    0.55498   1.00
H2       0.54590    1.00010    0.68529   1.00
H2       0.37528    0.96563    0.54425   1.00
H2       0.61047    0.99608    0.67148   1.00
H2       0.37155    0.90055    0.55981   1.00
H2       0.57641    1.04607    0.66240   1.00
