data_IRMOF10_interpen_symm_ligand2cp_label_m.

_audit_creation_method             'generated by an auxiliary program of Tobunporous'

_symmetry_space_group_name_H-M     'P 1'
_symmetry_Int_Tables_number        1
_symmetry_cell_setting             triclinic

_cell_length_a                    22.6523
_cell_length_b                    22.6523
_cell_length_c                    65.9502
_cell_angle_alpha                 90.0000
_cell_angle_beta                  90.0000
_cell_angle_gamma                 120.0000

loop_
_atom_site_label
_atom_site_fract_x
_atom_site_fract_y
_atom_site_fract_z
_atom_site_occupancy
O1       0.00000    0.00000    0.57470   1.00
Zn      0.00000    0.00000    0.54560   1.00
Zn      0.94843    0.04287    0.58357   1.00
Zn      0.09443    0.05157    0.58357   1.00
Zn      0.95713    0.90557    0.58357   1.00
O2       0.93860    0.02610    0.53560   1.00
O2       0.08750    0.06140    0.53560   1.00
O2       0.97390    0.91250    0.53560   1.00
O2       0.91300    0.07160    0.56150   1.00
O2       0.00463    0.12027    0.60077   1.00
O2       0.87413    0.98077    0.60037   1.00
O2       0.15860    0.08700    0.56150   1.00
O2       0.10663    0.12587    0.60037   1.00
O2       0.11563    0.99537    0.60077   1.00
O2       0.92840    0.84140    0.56150   1.00
O2       0.87973    0.88437    0.60077   1.00
O2       0.01923    0.89337    0.60037   1.00
C1       0.91390    0.06020    0.54330   1.00
C1       0.14630    0.08610    0.54330   1.00
C1       0.93980    0.85370    0.54330   1.00
C1       0.06663    0.14397    0.60637   1.00
C1       0.85603    0.92267    0.60637   1.00
C1       0.07733    0.93337    0.60637   1.00
O1       0.00000    0.00000    0.92530   1.00
Zn      0.00000    0.00000    0.95440   1.00
Zn      0.04287    0.94843    0.91643   1.00
Zn      0.05157    0.09443    0.91643   1.00
Zn      0.90557    0.95713    0.91643   1.00
O2       0.02610    0.93860    0.96440   1.00
O2       0.06140    0.08750    0.96440   1.00
O2       0.91250    0.97390    0.96440   1.00
O2       0.07160    0.91300    0.93850   1.00
O2       0.12027    0.00463    0.89923   1.00
O2       0.98077    0.87413    0.89963   1.00
O2       0.08700    0.15860    0.93850   1.00
O2       0.12587    0.10663    0.89963   1.00
O2       0.99537    0.11563    0.89923   1.00
O2       0.84140    0.92840    0.93850   1.00
O2       0.88437    0.87973    0.89923   1.00
O2       0.89337    0.01923    0.89963   1.00
C1       0.06020    0.91390    0.95670   1.00
C1       0.08610    0.14630    0.95670   1.00
C1       0.85370    0.93980    0.95670   1.00
C1       0.14397    0.06663    0.89363   1.00
C1       0.92267    0.85603    0.89363   1.00
C1       0.93337    0.07733    0.89363   1.00
O1       0.00000    0.00000    0.42530   1.00
Zn      0.00000    0.00000    0.45440   1.00
Zn      0.05157    0.95713    0.41643   1.00
Zn      0.90557    0.94843    0.41643   1.00
Zn      0.04287    0.09443    0.41643   1.00
O2       0.06140    0.97390    0.46440   1.00
O2       0.91250    0.93860    0.46440   1.00
O2       0.02610    0.08750    0.46440   1.00
O2       0.08700    0.92840    0.43850   1.00
O2       0.99537    0.87973    0.39923   1.00
O2       0.12587    0.01923    0.39963   1.00
O2       0.84140    0.91300    0.43850   1.00
O2       0.89337    0.87413    0.39963   1.00
O2       0.88437    0.00463    0.39923   1.00
O2       0.07160    0.15860    0.43850   1.00
O2       0.12027    0.11563    0.39923   1.00
O2       0.98077    0.10663    0.39963   1.00
C1       0.08610    0.93980    0.45670   1.00
C1       0.85370    0.91390    0.45670   1.00
C1       0.06020    0.14630    0.45670   1.00
C1       0.93337    0.85603    0.39363   1.00
C1       0.14397    0.07733    0.39363   1.00
C1       0.92267    0.06663    0.39363   1.00
O1       0.00000    0.00000    0.07470   1.00
Zn      0.00000    0.00000    0.04560   1.00
Zn      0.95713    0.05157    0.08357   1.00
Zn      0.94843    0.90557    0.08357   1.00
Zn      0.09443    0.04287    0.08357   1.00
O2       0.97390    0.06140    0.03560   1.00
O2       0.93860    0.91250    0.03560   1.00
O2       0.08750    0.02610    0.03560   1.00
O2       0.92840    0.08700    0.06150   1.00
O2       0.87973    0.99537    0.10077   1.00
O2       0.01923    0.12587    0.10037   1.00
O2       0.91300    0.84140    0.06150   1.00
O2       0.87413    0.89337    0.10037   1.00
O2       0.00463    0.88437    0.10077   1.00
O2       0.15860    0.07160    0.06150   1.00
O2       0.11563    0.12027    0.10077   1.00
O2       0.10663    0.98077    0.10037   1.00
C1       0.93980    0.08610    0.04330   1.00
C1       0.91390    0.85370    0.04330   1.00
C1       0.14630    0.06020    0.04330   1.00
C1       0.85603    0.93337    0.10637   1.00
C1       0.07733    0.14397    0.10637   1.00
C1       0.06663    0.92267    0.10637   1.00
O1       0.66667    0.33333    0.90803   1.00
Zn      0.66667    0.33333    0.87893   1.00
Zn      0.61510    0.37620    0.91690   1.00
Zn      0.76110    0.38490    0.91690   1.00
Zn      0.62380    0.23890    0.91690   1.00
O2       0.60527    0.35943    0.86893   1.00
O2       0.75417    0.39473    0.86893   1.00
O2       0.64057    0.24583    0.86893   1.00
O2       0.57967    0.40493    0.89483   1.00
O2       0.67130    0.45360    0.93410   1.00
O2       0.54080    0.31410    0.93370   1.00
O2       0.82527    0.42033    0.89483   1.00
O2       0.77330    0.45920    0.93370   1.00
O2       0.78230    0.32870    0.93410   1.00
O2       0.59507    0.17473    0.89483   1.00
O2       0.54640    0.21770    0.93410   1.00
O2       0.68590    0.22670    0.93370   1.00
C1       0.58057    0.39353    0.87663   1.00
C1       0.81297    0.41943    0.87663   1.00
C1       0.60647    0.18703    0.87663   1.00
C1       0.73330    0.47730    0.93970   1.00
C1       0.52270    0.25600    0.93970   1.00
C1       0.74400    0.26670    0.93970   1.00
O1       0.66667    0.33333    0.25863   1.00
Zn      0.66667    0.33333    0.28773   1.00
Zn      0.70953    0.28177    0.24977   1.00
Zn      0.71823    0.42777    0.24977   1.00
Zn      0.57223    0.29047    0.24977   1.00
O2       0.69277    0.27193    0.29773   1.00
O2       0.72807    0.42083    0.29773   1.00
O2       0.57917    0.30723    0.29773   1.00
O2       0.73827    0.24633    0.27183   1.00
O2       0.78693    0.33797    0.23257   1.00
O2       0.64743    0.20747    0.23297   1.00
O2       0.75367    0.49193    0.27183   1.00
O2       0.79253    0.43997    0.23297   1.00
O2       0.66203    0.44897    0.23257   1.00
O2       0.50807    0.26173    0.27183   1.00
O2       0.55103    0.21307    0.23257   1.00
O2       0.56003    0.35257    0.23297   1.00
C1       0.72687    0.24723    0.29003   1.00
C1       0.75277    0.47963    0.29003   1.00
C1       0.52037    0.27313    0.29003   1.00
C1       0.81063    0.39997    0.22697   1.00
C1       0.58933    0.18937    0.22697   1.00
C1       0.60003    0.41067    0.22697   1.00
O1       0.66667    0.33333    0.75863   1.00
Zn      0.66667    0.33333    0.78773   1.00
Zn      0.71823    0.29047    0.74977   1.00
Zn      0.57223    0.28177    0.74977   1.00
Zn      0.70953    0.42777    0.74977   1.00
O2       0.72807    0.30723    0.79773   1.00
O2       0.57917    0.27193    0.79773   1.00
O2       0.69277    0.42083    0.79773   1.00
O2       0.75367    0.26173    0.77183   1.00
O2       0.66203    0.21307    0.73257   1.00
O2       0.79253    0.35257    0.73297   1.00
O2       0.50807    0.24633    0.77183   1.00
O2       0.56003    0.20747    0.73297   1.00
O2       0.55103    0.33797    0.73257   1.00
O2       0.73827    0.49193    0.77183   1.00
O2       0.78693    0.44897    0.73257   1.00
O2       0.64743    0.43997    0.73297   1.00
C1       0.75277    0.27313    0.79003   1.00
C1       0.52037    0.24723    0.79003   1.00
C1       0.72687    0.47963    0.79003   1.00
C1       0.60003    0.18937    0.72697   1.00
C1       0.81063    0.41067    0.72697   1.00
C1       0.58933    0.39997    0.72697   1.00
O1       0.66667    0.33333    0.40803   1.00
Zn      0.66667    0.33333    0.37893   1.00
Zn      0.62380    0.38490    0.41690   1.00
Zn      0.61510    0.23890    0.41690   1.00
Zn      0.76110    0.37620    0.41690   1.00
O2       0.64057    0.39473    0.36893   1.00
O2       0.60527    0.24583    0.36893   1.00
O2       0.75417    0.35943    0.36893   1.00
O2       0.59507    0.42033    0.39483   1.00
O2       0.54640    0.32870    0.43410   1.00
O2       0.68590    0.45920    0.43370   1.00
O2       0.57967    0.17473    0.39483   1.00
O2       0.54080    0.22670    0.43370   1.00
O2       0.67130    0.21770    0.43410   1.00
O2       0.82527    0.40493    0.39483   1.00
O2       0.78230    0.45360    0.43410   1.00
O2       0.77330    0.31410    0.43370   1.00
C1       0.60647    0.41943    0.37663   1.00
C1       0.58057    0.18703    0.37663   1.00
C1       0.81297    0.39353    0.37663   1.00
C1       0.52270    0.26670    0.43970   1.00
C1       0.74400    0.47730    0.43970   1.00
C1       0.73330    0.25600    0.43970   1.00
O1       0.33333    0.66667    0.24137   1.00
Zn      0.33333    0.66667    0.21227   1.00
Zn      0.28177    0.70953    0.25023   1.00
Zn      0.42777    0.71823    0.25023   1.00
Zn      0.29047    0.57223    0.25023   1.00
O2       0.27193    0.69277    0.20227   1.00
O2       0.42083    0.72807    0.20227   1.00
O2       0.30723    0.57917    0.20227   1.00
O2       0.24633    0.73827    0.22817   1.00
O2       0.33797    0.78693    0.26743   1.00
O2       0.20747    0.64743    0.26703   1.00
O2       0.49193    0.75367    0.22817   1.00
O2       0.43997    0.79253    0.26703   1.00
O2       0.44897    0.66203    0.26743   1.00
O2       0.26173    0.50807    0.22817   1.00
O2       0.21307    0.55103    0.26743   1.00
O2       0.35257    0.56003    0.26703   1.00
C1       0.24723    0.72687    0.20997   1.00
C1       0.47963    0.75277    0.20997   1.00
C1       0.27313    0.52037    0.20997   1.00
C1       0.39997    0.81063    0.27303   1.00
C1       0.18937    0.58933    0.27303   1.00
C1       0.41067    0.60003    0.27303   1.00
O1       0.33333    0.66667    0.59197   1.00
Zn      0.33333    0.66667    0.62107   1.00
Zn      0.37620    0.61510    0.58310   1.00
Zn      0.38490    0.76110    0.58310   1.00
Zn      0.23890    0.62380    0.58310   1.00
O2       0.35943    0.60527    0.63107   1.00
O2       0.39473    0.75417    0.63107   1.00
O2       0.24583    0.64057    0.63107   1.00
O2       0.40493    0.57967    0.60517   1.00
O2       0.45360    0.67130    0.56590   1.00
O2       0.31410    0.54080    0.56630   1.00
O2       0.42033    0.82527    0.60517   1.00
O2       0.45920    0.77330    0.56630   1.00
O2       0.32870    0.78230    0.56590   1.00
O2       0.17473    0.59507    0.60517   1.00
O2       0.21770    0.54640    0.56590   1.00
O2       0.22670    0.68590    0.56630   1.00
C1       0.39353    0.58057    0.62337   1.00
C1       0.41943    0.81297    0.62337   1.00
C1       0.18703    0.60647    0.62337   1.00
C1       0.47730    0.73330    0.56030   1.00
C1       0.25600    0.52270    0.56030   1.00
C1       0.26670    0.74400    0.56030   1.00
O1       0.33333    0.66667    0.09197   1.00
Zn      0.33333    0.66667    0.12107   1.00
Zn      0.38490    0.62380    0.08310   1.00
Zn      0.23890    0.61510    0.08310   1.00
Zn      0.37620    0.76110    0.08310   1.00
O2       0.39473    0.64057    0.13107   1.00
O2       0.24583    0.60527    0.13107   1.00
O2       0.35943    0.75417    0.13107   1.00
O2       0.42033    0.59507    0.10517   1.00
O2       0.32870    0.54640    0.06590   1.00
O2       0.45920    0.68590    0.06630   1.00
O2       0.17473    0.57967    0.10517   1.00
O2       0.22670    0.54080    0.06630   1.00
O2       0.21770    0.67130    0.06590   1.00
O2       0.40493    0.82527    0.10517   1.00
O2       0.45360    0.78230    0.06590   1.00
O2       0.31410    0.77330    0.06630   1.00
C1       0.41943    0.60647    0.12337   1.00
C1       0.18703    0.58057    0.12337   1.00
C1       0.39353    0.81297    0.12337   1.00
C1       0.26670    0.52270    0.06030   1.00
C1       0.47730    0.74400    0.06030   1.00
C1       0.25600    0.73330    0.06030   1.00
O1       0.33333    0.66667    0.74137   1.00
Zn      0.33333    0.66667    0.71227   1.00
Zn      0.29047    0.71823    0.75023   1.00
Zn      0.28177    0.57223    0.75023   1.00
Zn      0.42777    0.70953    0.75023   1.00
O2       0.30723    0.72807    0.70227   1.00
O2       0.27193    0.57917    0.70227   1.00
O2       0.42083    0.69277    0.70227   1.00
O2       0.26173    0.75367    0.72817   1.00
O2       0.21307    0.66203    0.76743   1.00
O2       0.35257    0.79253    0.76703   1.00
O2       0.24633    0.50807    0.72817   1.00
O2       0.20747    0.56003    0.76703   1.00
O2       0.33797    0.55103    0.76743   1.00
O2       0.49193    0.73827    0.72817   1.00
O2       0.44897    0.78693    0.76743   1.00
O2       0.43997    0.64743    0.76703   1.00
C1       0.27313    0.75277    0.70997   1.00
C1       0.24723    0.52037    0.70997   1.00
C1       0.47963    0.72687    0.70997   1.00
C1       0.18937    0.60003    0.77303   1.00
C1       0.41067    0.81063    0.77303   1.00
C1       0.39997    0.58933    0.77303   1.00
C2       0.80435    0.54427    0.45242   1.00
C3       0.83945    0.61042    0.44813   1.00
H1       0.84920    0.62379    0.43465   1.00
C3       0.78906    0.52594    0.47217   1.00
H1       0.76367    0.47993    0.47548   1.00
C3a      0.86176    0.65998    0.46287   1.00
H1       0.88612    0.70629    0.45988   1.00
C3b      0.81021    0.57388    0.48748   1.00
H1       0.79874    0.56096    0.50094   1.00
C6       0.84602    0.64191    0.48289   1.00
C6       0.86794    0.69379    0.49919   1.00
C3c      0.82782    0.72173    0.50445   1.00
H1       0.78453    0.70425    0.49888   1.00
C3d      0.93024    0.71405    0.50853   1.00
H1       0.95872    0.69689    0.50524   1.00
C3       0.85141    0.77238    0.51907   1.00
H1       0.82412    0.79050    0.52287   1.00
C3       0.95187    0.76818    0.52321   1.00
H1       0.99377    0.78396    0.52954   1.00
C2       0.91370    0.79640    0.52810   1.00
C2       0.45573    0.26008    0.45242   1.00
C3       0.38958    0.22903    0.44813   1.00
H1       0.37621    0.22541    0.43465   1.00
C3       0.47406    0.26312    0.47217   1.00
H1       0.52007    0.28374    0.47548   1.00
C3a      0.34002    0.20178    0.46287   1.00
H1       0.29371    0.17984    0.45988   1.00
C3b      0.42612    0.23633    0.48748   1.00
H1       0.43904    0.23778    0.50094   1.00
C6       0.35809    0.20411    0.48289   1.00
C6       0.30621    0.17415    0.49919   1.00
C3c      0.27827    0.10609    0.50445   1.00
H1       0.29575    0.08027    0.49888   1.00
C3d      0.28595    0.21619    0.50853   1.00
H1       0.30311    0.26183    0.50524   1.00
C3       0.22762    0.07903    0.51907   1.00
H1       0.20950    0.03362    0.52287   1.00
C3       0.23182    0.18369    0.52321   1.00
H1       0.21604    0.20981    0.52954   1.00
C2       0.20360    0.11730    0.52810   1.00
C2       0.73992    0.19565    0.45242   1.00
C3       0.77097    0.16055    0.44813   1.00
H1       0.77459    0.15080    0.43465   1.00
C3       0.73688    0.21094    0.47217   1.00
H1       0.71626    0.23633    0.47548   1.00
C3a      0.79822    0.13824    0.46287   1.00
H1       0.82016    0.11388    0.45988   1.00
C3b      0.76367    0.18979    0.48748   1.00
H1       0.76222    0.20126    0.50094   1.00
C6       0.79589    0.15398    0.48289   1.00
C6       0.82585    0.13206    0.49919   1.00
C3c      0.89391    0.17218    0.50445   1.00
H1       0.91973    0.21547    0.49888   1.00
C3d      0.78381    0.06976    0.50853   1.00
H1       0.73817    0.04128    0.50524   1.00
C3       0.92097    0.14859    0.51907   1.00
H1       0.96638    0.17588    0.52287   1.00
C3       0.81631    0.04813    0.52321   1.00
H1       0.79019    0.00623    0.52954   1.00
C2       0.88270    0.08630    0.52810   1.00
C2       0.54427    0.80435    0.04758   1.00
C3       0.61042    0.83945    0.05187   1.00
H1       0.62379    0.84920    0.06535   1.00
C3       0.52594    0.78906    0.02783   1.00
H1       0.47993    0.76367    0.02452   1.00
C3a      0.65998    0.86176    0.03713   1.00
H1       0.70629    0.88612    0.04012   1.00
C3b      0.57388    0.81021    0.01252   1.00
H1       0.56096    0.79874    -0.00094   1.00
C6       0.64191    0.84602    0.01711   1.00
C6       0.69379    0.86794    0.00081   1.00
C3c      0.72173    0.82782    0.99555   1.00
H1       0.70425    0.78453    1.00112   1.00
C3d      0.71405    0.93024    0.99147   1.00
H1       0.69689    0.95872    0.99476   1.00
C3       0.77238    0.85141    0.98093   1.00
H1       0.79050    0.82412    0.97713   1.00
C3       0.76818    0.95187    0.97679   1.00
H1       0.78396    0.99377    0.97046   1.00
C2       0.79640    0.91370    0.97190   1.00
C2       0.26008    0.45573    0.04758   1.00
C3       0.22903    0.38958    0.05187   1.00
H1       0.22541    0.37621    0.06535   1.00
C3       0.26312    0.47406    0.02783   1.00
H1       0.28374    0.52007    0.02452   1.00
C3a      0.20178    0.34002    0.03713   1.00
H1       0.17984    0.29371    0.04012   1.00
C3b      0.23633    0.42612    0.01252   1.00
H1       0.23778    0.43904    -0.00094   1.00
C6       0.20411    0.35809    0.01711   1.00
C6       0.17415    0.30621    0.00081   1.00
C3c      0.10609    0.27827    0.99555   1.00
H1       0.08027    0.29575    1.00112   1.00
C3d      0.21619    0.28595    0.99147   1.00
H1       0.26183    0.30311    0.99476   1.00
C3       0.07903    0.22762    0.98093   1.00
H1       0.03362    0.20950    0.97713   1.00
C3       0.18369    0.23182    0.97679   1.00
H1       0.20981    0.21604    0.97046   1.00
C2       0.11730    0.20360    0.97190   1.00
C2       0.19565    0.73992    0.04758   1.00
C3       0.16055    0.77097    0.05187   1.00
H1       0.15080    0.77459    0.06535   1.00
C3       0.21094    0.73688    0.02783   1.00
H1       0.23633    0.71626    0.02452   1.00
C3a      0.13824    0.79822    0.03713   1.00
H1       0.11388    0.82016    0.04012   1.00
C3b      0.18979    0.76367    0.01252   1.00
H1       0.20126    0.76222    -0.00094   1.00
C6       0.15398    0.79589    0.01711   1.00
C6       0.13206    0.82585    0.00081   1.00
C3c      0.17218    0.89391    0.99555   1.00
H1       0.21547    0.91973    1.00112   1.00
C3d      0.06976    0.78381    0.99147   1.00
H1       0.04128    0.73817    0.99476   1.00
C3       0.14859    0.92097    0.98093   1.00
H1       0.17588    0.96638    0.97713   1.00
C3       0.04813    0.81631    0.97679   1.00
H1       0.00623    0.79019    0.97046   1.00
C2       0.08630    0.88270    0.97190   1.00
C2       0.19565    0.45573    0.54758   1.00
C3       0.16055    0.38958    0.55187   1.00
H1       0.15080    0.37621    0.56535   1.00
C3       0.21094    0.47406    0.52783   1.00
H1       0.23633    0.52007    0.52452   1.00
C3a      0.13824    0.34002    0.53713   1.00
H1       0.11388    0.29371    0.54012   1.00
C3b      0.18979    0.42612    0.51252   1.00
H1       0.20126    0.43904    0.49906   1.00
C6       0.15398    0.35809    0.51711   1.00
C6       0.13206    0.30621    0.50081   1.00
C3c      0.17218    0.27827    0.49555   1.00
H1       0.21547    0.29575    0.50112   1.00
C3d      0.06976    0.28595    0.49147   1.00
H1       0.04128    0.30311    0.49476   1.00
C3       0.14859    0.22762    0.48093   1.00
H1       0.17588    0.20950    0.47713   1.00
C3       0.04813    0.23182    0.47679   1.00
H1       0.00623    0.21604    0.47046   1.00
C2       0.08630    0.20360    0.47190   1.00
C2       0.54427    0.73992    0.54758   1.00
C3       0.61042    0.77097    0.55187   1.00
H1       0.62379    0.77459    0.56535   1.00
C3       0.52594    0.73688    0.52783   1.00
H1       0.47993    0.71626    0.52452   1.00
C3a      0.65998    0.79822    0.53713   1.00
H1       0.70629    0.82016    0.54012   1.00
C3b      0.57388    0.76367    0.51252   1.00
H1       0.56096    0.76222    0.49906   1.00
C6       0.64191    0.79589    0.51711   1.00
C6       0.69379    0.82585    0.50081   1.00
C3c      0.72173    0.89391    0.49555   1.00
H1       0.70425    0.91973    0.50112   1.00
C3d      0.71405    0.78381    0.49147   1.00
H1       0.69689    0.73817    0.49476   1.00
C3       0.77238    0.92097    0.48093   1.00
H1       0.79050    0.96638    0.47713   1.00
C3       0.76818    0.81631    0.47679   1.00
H1       0.78396    0.79019    0.47046   1.00
C2       0.79640    0.88270    0.47190   1.00
C2       0.26008    0.80435    0.54758   1.00
C3       0.22903    0.83945    0.55187   1.00
H1       0.22541    0.84920    0.56535   1.00
C3       0.26312    0.78906    0.52783   1.00
H1       0.28374    0.76367    0.52452   1.00
C3a      0.20178    0.86176    0.53713   1.00
H1       0.17984    0.88612    0.54012   1.00
C3b      0.23633    0.81021    0.51252   1.00
H1       0.23778    0.79874    0.49906   1.00
C6       0.20411    0.84602    0.51711   1.00
C6       0.17415    0.86794    0.50081   1.00
C3c      0.10609    0.82782    0.49555   1.00
H1       0.08027    0.78453    0.50112   1.00
C3d      0.21619    0.93024    0.49147   1.00
H1       0.26183    0.95872    0.49476   1.00
C3       0.07903    0.85141    0.48093   1.00
H1       0.03362    0.82412    0.47713   1.00
C3       0.18369    0.95187    0.47679   1.00
H1       0.20981    0.99377    0.47046   1.00
C2       0.11730    0.91370    0.47190   1.00
C2       0.45573    0.19565    0.95242   1.00
C3       0.38958    0.16055    0.94813   1.00
H1       0.37621    0.15080    0.93465   1.00
C3       0.47406    0.21094    0.97217   1.00
H1       0.52007    0.23633    0.97548   1.00
C3a      0.34002    0.13824    0.96287   1.00
H1       0.29371    0.11388    0.95988   1.00
C3b      0.42612    0.18979    0.98748   1.00
H1       0.43904    0.20126    1.00094   1.00
C6       0.35809    0.15398    0.98289   1.00
C6       0.30621    0.13206    0.99919   1.00
C3c      0.27827    0.17218    0.00445   1.00
H1       0.29575    0.21547    -0.00112   1.00
C3d      0.28595    0.06976    0.00853   1.00
H1       0.30311    0.04128    0.00524   1.00
C3       0.22762    0.14859    0.01907   1.00
H1       0.20950    0.17588    0.02287   1.00
C3       0.23182    0.04813    0.02321   1.00
H1       0.21604    0.00623    0.02954   1.00
C2       0.20360    0.08630    0.02810   1.00
C2       0.73992    0.54427    0.95242   1.00
C3       0.77097    0.61042    0.94813   1.00
H1       0.77459    0.62379    0.93465   1.00
C3       0.73688    0.52594    0.97217   1.00
H1       0.71626    0.47993    0.97548   1.00
C3a      0.79822    0.65998    0.96287   1.00
H1       0.82016    0.70629    0.95988   1.00
C3b      0.76367    0.57388    0.98748   1.00
H1       0.76222    0.56096    1.00094   1.00
C6       0.79589    0.64191    0.98289   1.00
C6       0.82585    0.69379    0.99919   1.00
C3c      0.89391    0.72173    0.00445   1.00
H1       0.91973    0.70425    -0.00112   1.00
C3d      0.78381    0.71405    0.00853   1.00
H1       0.73817    0.69689    0.00524   1.00
C3       0.92097    0.77238    0.01907   1.00
H1       0.96638    0.79050    0.02287   1.00
C3       0.81631    0.76818    0.02321   1.00
H1       0.79019    0.78396    0.02954   1.00
C2       0.88270    0.79640    0.02810   1.00
C2       0.80435    0.26008    0.95242   1.00
C3       0.83945    0.22903    0.94813   1.00
H1       0.84920    0.22541    0.93465   1.00
C3       0.78906    0.26312    0.97217   1.00
H1       0.76367    0.28374    0.97548   1.00
C3a      0.86176    0.20178    0.96287   1.00
H1       0.88612    0.17984    0.95988   1.00
C3b      0.81021    0.23633    0.98748   1.00
H1       0.79874    0.23778    1.00094   1.00
C6       0.84602    0.20411    0.98289   1.00
C6       0.86794    0.17415    0.99919   1.00
C3c      0.82782    0.10609    0.00445   1.00
H1       0.78453    0.08027    -0.00112   1.00
C3d      0.93024    0.21619    0.00853   1.00
H1       0.95872    0.26183    0.00524   1.00
C3       0.85141    0.07903    0.01907   1.00
H1       0.82412    0.03362    0.02287   1.00
C3       0.95187    0.18369    0.02321   1.00
H1       0.99377    0.20981    0.02954   1.00
C2       0.91370    0.11730    0.02810   1.00
C2       0.47102    0.87760    0.78575   1.00
C3       0.50612    0.94375    0.78146   1.00
H1       0.51587    0.95712    0.76798   1.00
C3       0.45573    0.85927    0.80550   1.00
H1       0.43034    0.81326    0.80881   1.00
C3a      0.52843    0.99331    0.79620   1.00
H1       0.55279    1.03962    0.79321   1.00
C3b      0.47688    0.90721    0.82081   1.00
H1       0.46541    0.89429    0.83427   1.00
C6       0.51269    0.97524    0.81622   1.00
C6       0.53461    0.02712    0.83252   1.00
C3c      0.49449    0.05506    0.83778   1.00
H1       0.45120    0.03758    0.83221   1.00
C3d      0.59691    0.04738    0.84186   1.00
H1       0.62539    0.03022    0.83857   1.00
C3       0.51808    0.10571    0.85240   1.00
H1       0.49079    0.12383    0.85620   1.00
C3       0.61854    0.10151    0.85654   1.00
H1       0.66044    0.11729    0.86287   1.00
C2       0.58037    0.12973    0.86143   1.00
C2       0.12240    0.59341    0.78575   1.00
C3       0.05625    0.56236    0.78146   1.00
H1       0.04288    0.55874    0.76798   1.00
C3       0.14073    0.59645    0.80550   1.00
H1       0.18674    0.61707    0.80881   1.00
C3a      0.00669    0.53511    0.79620   1.00
H1       -0.03962   0.51317    0.79321   1.00
C3b      0.09279    0.56966    0.82081   1.00
H1       0.10571    0.57111    0.83427   1.00
C6       0.02476    0.53744    0.81622   1.00
C6       0.97288    0.50748    0.83252   1.00
C3c      0.94494    0.43942    0.83778   1.00
H1       0.96242    0.41360    0.83221   1.00
C3d      0.95262    0.54952    0.84186   1.00
H1       0.96978    0.59516    0.83857   1.00
C3       0.89429    0.41236    0.85240   1.00
H1       0.87617    0.36695    0.85620   1.00
C3       0.89849    0.51702    0.85654   1.00
H1       0.88271    0.54314    0.86287   1.00
C2       0.87027    0.45063    0.86143   1.00
C2       0.40659    0.52898    0.78575   1.00
C3       0.43764    0.49388    0.78146   1.00
H1       0.44126    0.48413    0.76798   1.00
C3       0.40355    0.54427    0.80550   1.00
H1       0.38293    0.56966    0.80881   1.00
C3a      0.46489    0.47157    0.79620   1.00
H1       0.48683    0.44721    0.79321   1.00
C3b      0.43034    0.52312    0.82081   1.00
H1       0.42889    0.53459    0.83427   1.00
C6       0.46256    0.48731    0.81622   1.00
C6       0.49252    0.46539    0.83252   1.00
C3c      0.56058    0.50551    0.83778   1.00
H1       0.58640    0.54880    0.83221   1.00
C3d      0.45048    0.40309    0.84186   1.00
H1       0.40484    0.37461    0.83857   1.00
C3       0.58764    0.48192    0.85240   1.00
H1       0.63305    0.50921    0.85620   1.00
C3       0.48298    0.38146    0.85654   1.00
H1       0.45686    0.33956    0.86287   1.00
C2       0.54937    0.41963    0.86143   1.00
C2       0.21094    0.13768    0.38091   1.00
C3       0.27709    0.17278    0.38520   1.00
H1       0.29046    0.18253    0.39868   1.00
C3       0.19261    0.12239    0.36116   1.00
H1       0.14660    0.09700    0.35785   1.00
C3a      0.32665    0.19509    0.37046   1.00
H1       0.37296    0.21945    0.37345   1.00
C3b      0.24055    0.14354    0.34585   1.00
H1       0.22763    0.13207    0.33239   1.00
C6       0.30858    0.17935    0.35044   1.00
C6       0.36046    0.20127    0.33414   1.00
C3c      0.38840    0.16115    0.32888   1.00
H1       0.37092    0.11786    0.33445   1.00
C3d      0.38072    0.26357    0.32480   1.00
H1       0.36356    0.29205    0.32809   1.00
C3       0.43905    0.18474    0.31426   1.00
H1       0.45717    0.15745    0.31046   1.00
C3       0.43485    0.28520    0.31012   1.00
H1       0.45063    0.32710    0.30379   1.00
C2       0.46307    0.24703    0.30523   1.00
C2       0.92675    0.78906    0.38091   1.00
C3       0.89570    0.72291    0.38520   1.00
H1       0.89208    0.70954    0.39868   1.00
C3       0.92979    0.80739    0.36116   1.00
H1       0.95041    0.85340    0.35785   1.00
C3a      0.86845    0.67335    0.37046   1.00
H1       0.84651    0.62704    0.37345   1.00
C3b      0.90300    0.75945    0.34585   1.00
H1       0.90445    0.77237    0.33239   1.00
C6       0.87078    0.69142    0.35044   1.00
C6       0.84082    0.63954    0.33414   1.00
C3c      0.77276    0.61160    0.32888   1.00
H1       0.74694    0.62908    0.33445   1.00
C3d      0.88286    0.61928    0.32480   1.00
H1       0.92850    0.63644    0.32809   1.00
C3       0.74570    0.56095    0.31426   1.00
H1       0.70029    0.54283    0.31046   1.00
C3       0.85036    0.56515    0.31012   1.00
H1       0.87648    0.54937    0.30379   1.00
C2       0.78397    0.53693    0.30523   1.00
C2       0.86232    0.07325    0.38091   1.00
C3       0.82722    0.10430    0.38520   1.00
H1       0.81747    0.10792    0.39868   1.00
C3       0.87761    0.07021    0.36116   1.00
H1       0.90300    0.04959    0.35785   1.00
C3a      0.80491    0.13155    0.37046   1.00
H1       0.78055    0.15349    0.37345   1.00
C3b      0.85646    0.09700    0.34585   1.00
H1       0.86793    0.09555    0.33239   1.00
C6       0.82065    0.12922    0.35044   1.00
C6       0.79873    0.15918    0.33414   1.00
C3c      0.83885    0.22724    0.32888   1.00
H1       0.88214    0.25306    0.33445   1.00
C3d      0.73643    0.11714    0.32480   1.00
H1       0.70795    0.07150    0.32809   1.00
C3       0.81526    0.25430    0.31426   1.00
H1       0.84255    0.29971    0.31046   1.00
C3       0.71480    0.14964    0.31012   1.00
H1       0.67290    0.12352    0.30379   1.00
C2       0.75297    0.21603    0.30523   1.00
C2       0.86232    0.78906    0.88091   1.00
C3       0.82722    0.72291    0.88520   1.00
H1       0.81747    0.70954    0.89868   1.00
C3       0.87761    0.80739    0.86116   1.00
H1       0.90300    0.85340    0.85785   1.00
C3a      0.80491    0.67335    0.87046   1.00
H1       0.78055    0.62704    0.87345   1.00
C3b      0.85646    0.75945    0.84585   1.00
H1       0.86793    0.77237    0.83239   1.00
C6       0.82065    0.69142    0.85044   1.00
C6       0.79873    0.63954    0.83414   1.00
C3c      0.83885    0.61160    0.82888   1.00
H1       0.88214    0.62908    0.83445   1.00
C3d      0.73643    0.61928    0.82480   1.00
H1       0.70795    0.63644    0.82809   1.00
C3       0.81526    0.56095    0.81426   1.00
H1       0.84255    0.54283    0.81046   1.00
C3       0.71480    0.56515    0.81012   1.00
H1       0.67290    0.54937    0.80379   1.00
C2       0.75297    0.53693    0.80523   1.00
C2       0.21094    0.07325    0.88091   1.00
C3       0.27709    0.10430    0.88520   1.00
H1       0.29046    0.10792    0.89868   1.00
C3       0.19261    0.07021    0.86116   1.00
H1       0.14660    0.04959    0.85785   1.00
C3a      0.32665    0.13155    0.87046   1.00
H1       0.37296    0.15349    0.87345   1.00
C3b      0.24055    0.09700    0.84585   1.00
H1       0.22763    0.09555    0.83239   1.00
C6       0.30858    0.12922    0.85044   1.00
C6       0.36046    0.15918    0.83414   1.00
C3c      0.38840    0.22724    0.82888   1.00
H1       0.37092    0.25306    0.83445   1.00
C3d      0.38072    0.11714    0.82480   1.00
H1       0.36356    0.07150    0.82809   1.00
C3       0.43905    0.25430    0.81426   1.00
H1       0.45717    0.29971    0.81046   1.00
C3       0.43485    0.14964    0.81012   1.00
H1       0.45063    0.12352    0.80379   1.00
C2       0.46307    0.21603    0.80523   1.00
C2       0.92675    0.13768    0.88091   1.00
C3       0.89570    0.17278    0.88520   1.00
H1       0.89208    0.18253    0.89868   1.00
C3       0.92979    0.12239    0.86116   1.00
H1       0.95041    0.09700    0.85785   1.00
C3a      0.86845    0.19509    0.87046   1.00
H1       0.84651    0.21945    0.87345   1.00
C3b      0.90300    0.14354    0.84585   1.00
H1       0.90445    0.13207    0.83239   1.00
C6       0.87078    0.17935    0.85044   1.00
C6       0.84082    0.20127    0.83414   1.00
C3c      0.77276    0.16115    0.82888   1.00
H1       0.74694    0.11786    0.83445   1.00
C3d      0.88286    0.26357    0.82480   1.00
H1       0.92850    0.29205    0.82809   1.00
C3       0.74570    0.18474    0.81426   1.00
H1       0.70029    0.15745    0.81046   1.00
C3       0.85036    0.28520    0.81012   1.00
H1       0.87648    0.32710    0.80379   1.00
C2       0.78397    0.24703    0.80523   1.00
C2       0.12240    0.52898    0.28575   1.00
C3       0.05625    0.49388    0.28146   1.00
H1       0.04288    0.48413    0.26798   1.00
C3       0.14073    0.54427    0.30550   1.00
H1       0.18674    0.56966    0.30881   1.00
C3a      0.00669    0.47157    0.29620   1.00
H1       -0.03962   0.44721    0.29321   1.00
C3b      0.09279    0.52312    0.32081   1.00
H1       0.10571    0.53459    0.33427   1.00
C6       0.02476    0.48731    0.31622   1.00
C6       0.97288    0.46539    0.33252   1.00
C3c      0.94494    0.50551    0.33778   1.00
H1       0.96242    0.54880    0.33221   1.00
C3d      0.95262    0.40309    0.34186   1.00
H1       0.96978    0.37461    0.33857   1.00
C3       0.89429    0.48192    0.35240   1.00
H1       0.87617    0.50921    0.35620   1.00
C3       0.89849    0.38146    0.35654   1.00
H1       0.88271    0.33956    0.36287   1.00
C2       0.87027    0.41963    0.36143   1.00
C2       0.40659    0.87760    0.28575   1.00
C3       0.43764    0.94375    0.28146   1.00
H1       0.44126    0.95712    0.26798   1.00
C3       0.40355    0.85927    0.30550   1.00
H1       0.38293    0.81326    0.30881   1.00
C3a      0.46489    0.99331    0.29620   1.00
H1       0.48683    1.03962    0.29321   1.00
C3b      0.43034    0.90721    0.32081   1.00
H1       0.42889    0.89429    0.33427   1.00
C6       0.46256    0.97524    0.31622   1.00
C6       0.49252    0.02712    0.33252   1.00
C3c      0.56058    0.05506    0.33778   1.00
H1       0.58640    0.03758    0.33221   1.00
C3d      0.45048    0.04738    0.34186   1.00
H1       0.40484    0.03022    0.33857   1.00
C3       0.58764    0.10571    0.35240   1.00
H1       0.63305    0.12383    0.35620   1.00
C3       0.48298    0.10151    0.35654   1.00
H1       0.45686    0.11729    0.36287   1.00
C2       0.54937    0.12973    0.36143   1.00
C2       0.47102    0.59341    0.28575   1.00
C3       0.50612    0.56236    0.28146   1.00
H1       0.51587    0.55874    0.26798   1.00
C3       0.45573    0.59645    0.30550   1.00
H1       0.43034    0.61707    0.30881   1.00
C3a      0.52843    0.53511    0.29620   1.00
H1       0.55279    0.51317    0.29321   1.00
C3b      0.47688    0.56966    0.32081   1.00
H1       0.46541    0.57111    0.33427   1.00
C6       0.51269    0.53744    0.31622   1.00
C6       0.53461    0.50748    0.33252   1.00
C3c      0.49449    0.43942    0.33778   1.00
H1       0.45120    0.41360    0.33221   1.00
C3d      0.59691    0.54952    0.34186   1.00
H1       0.62539    0.59516    0.33857   1.00
C3       0.51808    0.41236    0.35240   1.00
H1       0.49079    0.36695    0.35620   1.00
C3       0.61854    0.51702    0.35654   1.00
H1       0.66044    0.54314    0.36287   1.00
C2       0.58037    0.45063    0.36143   1.00
C2       0.13768    0.21094    0.11909   1.00
C3       0.17278    0.27709    0.11480   1.00
H1       0.18253    0.29046    0.10132   1.00
C3       0.12239    0.19261    0.13884   1.00
H1       0.09700    0.14660    0.14215   1.00
C3a      0.19509    0.32665    0.12954   1.00
H1       0.21945    0.37296    0.12655   1.00
C3b      0.14354    0.24055    0.15415   1.00
H1       0.13207    0.22763    0.16761   1.00
C6       0.17935    0.30858    0.14956   1.00
C6       0.20127    0.36046    0.16586   1.00
C3c      0.16115    0.38840    0.17112   1.00
H1       0.11786    0.37092    0.16555   1.00
C3d      0.26357    0.38072    0.17520   1.00
H1       0.29205    0.36356    0.17191   1.00
C3       0.18474    0.43905    0.18574   1.00
H1       0.15745    0.45717    0.18954   1.00
C3       0.28520    0.43485    0.18988   1.00
H1       0.32710    0.45063    0.19621   1.00
C2       0.24703    0.46307    0.19477   1.00
C2       0.78906    0.92675    0.11909   1.00
C3       0.72291    0.89570    0.11480   1.00
H1       0.70954    0.89208    0.10132   1.00
C3       0.80739    0.92979    0.13884   1.00
H1       0.85340    0.95041    0.14215   1.00
C3a      0.67335    0.86845    0.12954   1.00
H1       0.62704    0.84651    0.12655   1.00
C3b      0.75945    0.90300    0.15415   1.00
H1       0.77237    0.90445    0.16761   1.00
C6       0.69142    0.87078    0.14956   1.00
C6       0.63954    0.84082    0.16586   1.00
C3c      0.61160    0.77276    0.17112   1.00
H1       0.62908    0.74694    0.16555   1.00
C3d      0.61928    0.88286    0.17520   1.00
H1       0.63644    0.92850    0.17191   1.00
C3       0.56095    0.74570    0.18574   1.00
H1       0.54283    0.70029    0.18954   1.00
C3       0.56515    0.85036    0.18988   1.00
H1       0.54937    0.87648    0.19621   1.00
C2       0.53693    0.78397    0.19477   1.00
C2       0.07325    0.86232    0.11909   1.00
C3       0.10430    0.82722    0.11480   1.00
H1       0.10792    0.81747    0.10132   1.00
C3       0.07021    0.87761    0.13884   1.00
H1       0.04959    0.90300    0.14215   1.00
C3a      0.13155    0.80491    0.12954   1.00
H1       0.15349    0.78055    0.12655   1.00
C3b      0.09700    0.85646    0.15415   1.00
H1       0.09555    0.86793    0.16761   1.00
C6       0.12922    0.82065    0.14956   1.00
C6       0.15918    0.79873    0.16586   1.00
C3c      0.22724    0.83885    0.17112   1.00
H1       0.25306    0.88214    0.16555   1.00
C3d      0.11714    0.73643    0.17520   1.00
H1       0.07150    0.70795    0.17191   1.00
C3       0.25430    0.81526    0.18574   1.00
H1       0.29971    0.84255    0.18954   1.00
C3       0.14964    0.71480    0.18988   1.00
H1       0.12352    0.67290    0.19621   1.00
C2       0.21603    0.75297    0.19477   1.00
C2       0.87760    0.47102    0.71425   1.00
C3       0.94375    0.50612    0.71854   1.00
H1       0.95712    0.51587    0.73202   1.00
C3       0.85927    0.45573    0.69450   1.00
H1       0.81326    0.43034    0.69119   1.00
C3a      0.99331    0.52843    0.70380   1.00
H1       1.03962    0.55279    0.70679   1.00
C3b      0.90721    0.47688    0.67919   1.00
H1       0.89429    0.46541    0.66573   1.00
C6       0.97524    0.51269    0.68378   1.00
C6       0.02712    0.53461    0.66748   1.00
C3c      0.05506    0.49449    0.66222   1.00
H1       0.03758    0.45120    0.66779   1.00
C3d      0.04738    0.59691    0.65814   1.00
H1       0.03022    0.62539    0.66143   1.00
C3       0.10571    0.51808    0.64760   1.00
H1       0.12383    0.49079    0.64380   1.00
C3       0.10151    0.61854    0.64346   1.00
H1       0.11729    0.66044    0.63713   1.00
C2       0.12973    0.58037    0.63857   1.00
C2       0.59341    0.12240    0.71425   1.00
C3       0.56236    0.05625    0.71854   1.00
H1       0.55874    0.04288    0.73202   1.00
C3       0.59645    0.14073    0.69450   1.00
H1       0.61707    0.18674    0.69119   1.00
C3a      0.53511    0.00669    0.70380   1.00
H1       0.51317    -0.03962   0.70679   1.00
C3b      0.56966    0.09279    0.67919   1.00
H1       0.57111    0.10571    0.66573   1.00
C6       0.53744    0.02476    0.68378   1.00
C6       0.50748    0.97288    0.66748   1.00
C3c      0.43942    0.94494    0.66222   1.00
H1       0.41360    0.96242    0.66779   1.00
C3d      0.54952    0.95262    0.65814   1.00
H1       0.59516    0.96978    0.66143   1.00
C3       0.41236    0.89429    0.64760   1.00
H1       0.36695    0.87617    0.64380   1.00
C3       0.51702    0.89849    0.64346   1.00
H1       0.54314    0.88271    0.63713   1.00
C2       0.45063    0.87027    0.63857   1.00
C2       0.52898    0.40659    0.71425   1.00
C3       0.49388    0.43764    0.71854   1.00
H1       0.48413    0.44126    0.73202   1.00
C3       0.54427    0.40355    0.69450   1.00
H1       0.56966    0.38293    0.69119   1.00
C3a      0.47157    0.46489    0.70380   1.00
H1       0.44721    0.48683    0.70679   1.00
C3b      0.52312    0.43034    0.67919   1.00
H1       0.53459    0.42889    0.66573   1.00
C6       0.48731    0.46256    0.68378   1.00
C6       0.46539    0.49252    0.66748   1.00
C3c      0.50551    0.56058    0.66222   1.00
H1       0.54880    0.58640    0.66779   1.00
C3d      0.40309    0.45048    0.65814   1.00
H1       0.37461    0.40484    0.66143   1.00
C3       0.48192    0.58764    0.64760   1.00
H1       0.50921    0.63305    0.64380   1.00
C3       0.38146    0.48298    0.64346   1.00
H1       0.33956    0.45686    0.63713   1.00
C2       0.41963    0.54937    0.63857   1.00
C2       0.52898    0.12240    0.21425   1.00
C3       0.49388    0.05625    0.21854   1.00
H1       0.48413    0.04288    0.23202   1.00
C3       0.54427    0.14073    0.19450   1.00
H1       0.56966    0.18674    0.19119   1.00
C3a      0.47157    0.00669    0.20380   1.00
H1       0.44721    -0.03962   0.20679   1.00
C3b      0.52312    0.09279    0.17919   1.00
H1       0.53459    0.10571    0.16573   1.00
C6       0.48731    0.02476    0.18378   1.00
C6       0.46539    0.97288    0.16748   1.00
C3c      0.50551    0.94494    0.16222   1.00
H1       0.54880    0.96242    0.16779   1.00
C3d      0.40309    0.95262    0.15814   1.00
H1       0.37461    0.96978    0.16143   1.00
C3       0.48192    0.89429    0.14760   1.00
H1       0.50921    0.87617    0.14380   1.00
C3       0.38146    0.89849    0.14346   1.00
H1       0.33956    0.88271    0.13713   1.00
C2       0.41963    0.87027    0.13857   1.00
C2       0.87760    0.40659    0.21425   1.00
C3       0.94375    0.43764    0.21854   1.00
H1       0.95712    0.44126    0.23202   1.00
C3       0.85927    0.40355    0.19450   1.00
H1       0.81326    0.38293    0.19119   1.00
C3a      0.99331    0.46489    0.20380   1.00
H1       1.03962    0.48683    0.20679   1.00
C3b      0.90721    0.43034    0.17919   1.00
H1       0.89429    0.42889    0.16573   1.00
C6       0.97524    0.46256    0.18378   1.00
C6       0.02712    0.49252    0.16748   1.00
C3c      0.05506    0.56058    0.16222   1.00
H1       0.03758    0.58640    0.16779   1.00
C3d      0.04738    0.45048    0.15814   1.00
H1       0.03022    0.40484    0.16143   1.00
C3       0.10571    0.58764    0.14760   1.00
H1       0.12383    0.63305    0.14380   1.00
C3       0.10151    0.48298    0.14346   1.00
H1       0.11729    0.45686    0.13713   1.00
C2       0.12973    0.54937    0.13857   1.00
C2       0.59341    0.47102    0.21425   1.00
C3       0.56236    0.50612    0.21854   1.00
H1       0.55874    0.51587    0.23202   1.00
C3       0.59645    0.45573    0.19450   1.00
H1       0.61707    0.43034    0.19119   1.00
C3a      0.53511    0.52843    0.20380   1.00
H1       0.51317    0.55279    0.20679   1.00
C3b      0.56966    0.47688    0.17919   1.00
H1       0.57111    0.46541    0.16573   1.00
C6       0.53744    0.51269    0.18378   1.00
C6       0.50748    0.53461    0.16748   1.00
C3c      0.43942    0.49449    0.16222   1.00
H1       0.41360    0.45120    0.16779   1.00
C3d      0.54952    0.59691    0.15814   1.00
H1       0.59516    0.62539    0.16143   1.00
C3       0.41236    0.51808    0.14760   1.00
H1       0.36695    0.49079    0.14380   1.00
C3       0.51702    0.61854    0.14346   1.00
H1       0.54314    0.66044    0.13713   1.00
C2       0.45063    0.58037    0.13857   1.00
C2       0.78906    0.86232    0.61909   1.00
C3       0.72291    0.82722    0.61480   1.00
H1       0.70954    0.81747    0.60132   1.00
C3       0.80739    0.87761    0.63884   1.00
H1       0.85340    0.90300    0.64215   1.00
C3a      0.67335    0.80491    0.62954   1.00
H1       0.62704    0.78055    0.62655   1.00
C3b      0.75945    0.85646    0.65415   1.00
H1       0.77237    0.86793    0.66761   1.00
C6       0.69142    0.82065    0.64956   1.00
C6       0.63954    0.79873    0.66586   1.00
C3c      0.61160    0.83885    0.67112   1.00
H1       0.62908    0.88214    0.66555   1.00
C3d      0.61928    0.73643    0.67520   1.00
H1       0.63644    0.70795    0.67191   1.00
C3       0.56095    0.81526    0.68574   1.00
H1       0.54283    0.84255    0.68954   1.00
C3       0.56515    0.71480    0.68988   1.00
H1       0.54937    0.67290    0.69621   1.00
C2       0.53693    0.75297    0.69477   1.00
C2       0.07325    0.21094    0.61909   1.00
C3       0.10430    0.27709    0.61480   1.00
H1       0.10792    0.29046    0.60132   1.00
C3       0.07021    0.19261    0.63884   1.00
H1       0.04959    0.14660    0.64215   1.00
C3a      0.13155    0.32665    0.62954   1.00
H1       0.15349    0.37296    0.62655   1.00
C3b      0.09700    0.24055    0.65415   1.00
H1       0.09555    0.22763    0.66761   1.00
C6       0.12922    0.30858    0.64956   1.00
C6       0.15918    0.36046    0.66586   1.00
C3c      0.22724    0.38840    0.67112   1.00
H1       0.25306    0.37092    0.66555   1.00
C3d      0.11714    0.38072    0.67520   1.00
H1       0.07150    0.36356    0.67191   1.00
C3       0.25430    0.43905    0.68574   1.00
H1       0.29971    0.45717    0.68954   1.00
C3       0.14964    0.43485    0.68988   1.00
H1       0.12352    0.45063    0.69621   1.00
C2       0.21603    0.46307    0.69477   1.00
C2       0.13768    0.92675    0.61909   1.00
C3       0.17278    0.89570    0.61480   1.00
H1       0.18253    0.89208    0.60132   1.00
C3       0.12239    0.92979    0.63884   1.00
H1       0.09700    0.95041    0.64215   1.00
C3a      0.19509    0.86845    0.62954   1.00
H1       0.21945    0.84651    0.62655   1.00
C3b      0.14354    0.90300    0.65415   1.00
H1       0.13207    0.90445    0.66761   1.00
C6       0.17935    0.87078    0.64956   1.00
C6       0.20127    0.84082    0.66586   1.00
C3c      0.16115    0.77276    0.67112   1.00
H1       0.11786    0.74694    0.66555   1.00
C3d      0.26357    0.88286    0.67520   1.00
H1       0.29205    0.92850    0.67191   1.00
C3       0.18474    0.74570    0.68574   1.00
H1       0.15745    0.70029    0.68954   1.00
C3       0.28520    0.85036    0.68988   1.00
H1       0.32710    0.87648    0.69621   1.00
C2       0.24703    0.78397    0.69477   1.00
