data_IRMOF10_interpen_symm_ligand3cp_label_g_1.

_audit_creation_method             'generated by an auxiliary program of Tobunporous'

_symmetry_space_group_name_H-M     'P 1'
_symmetry_Int_Tables_number        1
_symmetry_cell_setting             triclinic

_cell_length_a                    22.6523
_cell_length_b                    22.6523
_cell_length_c                    65.9502
_cell_angle_alpha                 90.0000
_cell_angle_beta                  90.0000
_cell_angle_gamma                 120.0000

loop_
_atom_site_label
_atom_site_fract_x
_atom_site_fract_y
_atom_site_fract_z
_atom_site_occupancy
O1       0.00000    0.00000    0.57470   1.00
Zn1      0.00000    0.00000    0.54560   1.00
Zn1      0.94843    0.04287    0.58357   1.00
Zn1      0.09443    0.05157    0.58357   1.00
Zn1      0.95713    0.90557    0.58357   1.00
O2       0.93860    0.02610    0.53560   1.00
O2       0.08750    0.06140    0.53560   1.00
O2       0.97390    0.91250    0.53560   1.00
O2       0.91300    0.07160    0.56150   1.00
O2       0.00463    0.12027    0.60077   1.00
O2       0.87413    0.98077    0.60037   1.00
O2       0.15860    0.08700    0.56150   1.00
O2       0.10663    0.12587    0.60037   1.00
O2       0.11563    0.99537    0.60077   1.00
O2       0.92840    0.84140    0.56150   1.00
O2       0.87973    0.88437    0.60077   1.00
O2       0.01923    0.89337    0.60037   1.00
C1       0.91390    0.06020    0.54330   1.00
C1       0.14630    0.08610    0.54330   1.00
C1       0.93980    0.85370    0.54330   1.00
C1       0.06663    0.14397    0.60637   1.00
C1       0.85603    0.92267    0.60637   1.00
C1       0.07733    0.93337    0.60637   1.00
O1       0.00000    0.00000    0.92530   1.00
Zn1      0.00000    0.00000    0.95440   1.00
Zn1      0.04287    0.94843    0.91643   1.00
Zn1      0.05157    0.09443    0.91643   1.00
Zn1      0.90557    0.95713    0.91643   1.00
O2       0.02610    0.93860    0.96440   1.00
O2       0.06140    0.08750    0.96440   1.00
O2       0.91250    0.97390    0.96440   1.00
O2       0.07160    0.91300    0.93850   1.00
O2       0.12027    0.00463    0.89923   1.00
O2       0.98077    0.87413    0.89963   1.00
O2       0.08700    0.15860    0.93850   1.00
O2       0.12587    0.10663    0.89963   1.00
O2       0.99537    0.11563    0.89923   1.00
O2       0.84140    0.92840    0.93850   1.00
O2       0.88437    0.87973    0.89923   1.00
O2       0.89337    0.01923    0.89963   1.00
C1       0.06020    0.91390    0.95670   1.00
C1       0.08610    0.14630    0.95670   1.00
C1       0.85370    0.93980    0.95670   1.00
C1       0.14397    0.06663    0.89363   1.00
C1       0.92267    0.85603    0.89363   1.00
C1       0.93337    0.07733    0.89363   1.00
O1       0.00000    0.00000    0.42530   1.00
Zn1      0.00000    0.00000    0.45440   1.00
Zn1      0.05157    0.95713    0.41643   1.00
Zn1      0.90557    0.94843    0.41643   1.00
Zn1      0.04287    0.09443    0.41643   1.00
O2       0.06140    0.97390    0.46440   1.00
O2       0.91250    0.93860    0.46440   1.00
O2       0.02610    0.08750    0.46440   1.00
O2       0.08700    0.92840    0.43850   1.00
O2       0.99537    0.87973    0.39923   1.00
O2       0.12587    0.01923    0.39963   1.00
O2       0.84140    0.91300    0.43850   1.00
O2       0.89337    0.87413    0.39963   1.00
O2       0.88437    0.00463    0.39923   1.00
O2       0.07160    0.15860    0.43850   1.00
O2       0.12027    0.11563    0.39923   1.00
O2       0.98077    0.10663    0.39963   1.00
C1       0.08610    0.93980    0.45670   1.00
C1       0.85370    0.91390    0.45670   1.00
C1       0.06020    0.14630    0.45670   1.00
C1       0.93337    0.85603    0.39363   1.00
C1       0.14397    0.07733    0.39363   1.00
C1       0.92267    0.06663    0.39363   1.00
O1       0.00000    0.00000    0.07470   1.00
Zn1      0.00000    0.00000    0.04560   1.00
Zn1      0.95713    0.05157    0.08357   1.00
Zn1      0.94843    0.90557    0.08357   1.00
Zn1      0.09443    0.04287    0.08357   1.00
O2       0.97390    0.06140    0.03560   1.00
O2       0.93860    0.91250    0.03560   1.00
O2       0.08750    0.02610    0.03560   1.00
O2       0.92840    0.08700    0.06150   1.00
O2       0.87973    0.99537    0.10077   1.00
O2       0.01923    0.12587    0.10037   1.00
O2       0.91300    0.84140    0.06150   1.00
O2       0.87413    0.89337    0.10037   1.00
O2       0.00463    0.88437    0.10077   1.00
O2       0.15860    0.07160    0.06150   1.00
O2       0.11563    0.12027    0.10077   1.00
O2       0.10663    0.98077    0.10037   1.00
C1       0.93980    0.08610    0.04330   1.00
C1       0.91390    0.85370    0.04330   1.00
C1       0.14630    0.06020    0.04330   1.00
C1       0.85603    0.93337    0.10637   1.00
C1       0.07733    0.14397    0.10637   1.00
C1       0.06663    0.92267    0.10637   1.00
O1       0.66667    0.33333    0.90803   1.00
Zn1      0.66667    0.33333    0.87893   1.00
Zn1      0.61510    0.37620    0.91690   1.00
Zn1      0.76110    0.38490    0.91690   1.00
Zn1      0.62380    0.23890    0.91690   1.00
O2       0.60527    0.35943    0.86893   1.00
O2       0.75417    0.39473    0.86893   1.00
O2       0.64057    0.24583    0.86893   1.00
O2       0.57967    0.40493    0.89483   1.00
O2       0.67130    0.45360    0.93410   1.00
O2       0.54080    0.31410    0.93370   1.00
O2       0.82527    0.42033    0.89483   1.00
O2       0.77330    0.45920    0.93370   1.00
O2       0.78230    0.32870    0.93410   1.00
O2       0.59507    0.17473    0.89483   1.00
O2       0.54640    0.21770    0.93410   1.00
O2       0.68590    0.22670    0.93370   1.00
C1       0.58057    0.39353    0.87663   1.00
C1       0.81297    0.41943    0.87663   1.00
C1       0.60647    0.18703    0.87663   1.00
C1       0.73330    0.47730    0.93970   1.00
C1       0.52270    0.25600    0.93970   1.00
C1       0.74400    0.26670    0.93970   1.00
O1       0.66667    0.33333    0.25863   1.00
Zn1      0.66667    0.33333    0.28773   1.00
Zn1      0.70953    0.28177    0.24977   1.00
Zn1      0.71823    0.42777    0.24977   1.00
Zn1      0.57223    0.29047    0.24977   1.00
O2       0.69277    0.27193    0.29773   1.00
O2       0.72807    0.42083    0.29773   1.00
O2       0.57917    0.30723    0.29773   1.00
O2       0.73827    0.24633    0.27183   1.00
O2       0.78693    0.33797    0.23257   1.00
O2       0.64743    0.20747    0.23297   1.00
O2       0.75367    0.49193    0.27183   1.00
O2       0.79253    0.43997    0.23297   1.00
O2       0.66203    0.44897    0.23257   1.00
O2       0.50807    0.26173    0.27183   1.00
O2       0.55103    0.21307    0.23257   1.00
O2       0.56003    0.35257    0.23297   1.00
C1       0.72687    0.24723    0.29003   1.00
C1       0.75277    0.47963    0.29003   1.00
C1       0.52037    0.27313    0.29003   1.00
C1       0.81063    0.39997    0.22697   1.00
C1       0.58933    0.18937    0.22697   1.00
C1       0.60003    0.41067    0.22697   1.00
O1       0.66667    0.33333    0.75863   1.00
Zn1      0.66667    0.33333    0.78773   1.00
Zn1      0.71823    0.29047    0.74977   1.00
Zn1      0.57223    0.28177    0.74977   1.00
Zn1      0.70953    0.42777    0.74977   1.00
O2       0.72807    0.30723    0.79773   1.00
O2       0.57917    0.27193    0.79773   1.00
O2       0.69277    0.42083    0.79773   1.00
O2       0.75367    0.26173    0.77183   1.00
O2       0.66203    0.21307    0.73257   1.00
O2       0.79253    0.35257    0.73297   1.00
O2       0.50807    0.24633    0.77183   1.00
O2       0.56003    0.20747    0.73297   1.00
O2       0.55103    0.33797    0.73257   1.00
O2       0.73827    0.49193    0.77183   1.00
O2       0.78693    0.44897    0.73257   1.00
O2       0.64743    0.43997    0.73297   1.00
C1       0.75277    0.27313    0.79003   1.00
C1       0.52037    0.24723    0.79003   1.00
C1       0.72687    0.47963    0.79003   1.00
C1       0.60003    0.18937    0.72697   1.00
C1       0.81063    0.41067    0.72697   1.00
C1       0.58933    0.39997    0.72697   1.00
O1       0.66667    0.33333    0.40803   1.00
Zn1      0.66667    0.33333    0.37893   1.00
Zn1      0.62380    0.38490    0.41690   1.00
Zn1      0.61510    0.23890    0.41690   1.00
Zn1      0.76110    0.37620    0.41690   1.00
O2       0.64057    0.39473    0.36893   1.00
O2       0.60527    0.24583    0.36893   1.00
O2       0.75417    0.35943    0.36893   1.00
O2       0.59507    0.42033    0.39483   1.00
O2       0.54640    0.32870    0.43410   1.00
O2       0.68590    0.45920    0.43370   1.00
O2       0.57967    0.17473    0.39483   1.00
O2       0.54080    0.22670    0.43370   1.00
O2       0.67130    0.21770    0.43410   1.00
O2       0.82527    0.40493    0.39483   1.00
O2       0.78230    0.45360    0.43410   1.00
O2       0.77330    0.31410    0.43370   1.00
C1       0.60647    0.41943    0.37663   1.00
C1       0.58057    0.18703    0.37663   1.00
C1       0.81297    0.39353    0.37663   1.00
C1       0.52270    0.26670    0.43970   1.00
C1       0.74400    0.47730    0.43970   1.00
C1       0.73330    0.25600    0.43970   1.00
O1       0.33333    0.66667    0.24137   1.00
Zn1      0.33333    0.66667    0.21227   1.00
Zn1      0.28177    0.70953    0.25023   1.00
Zn1      0.42777    0.71823    0.25023   1.00
Zn1      0.29047    0.57223    0.25023   1.00
O2       0.27193    0.69277    0.20227   1.00
O2       0.42083    0.72807    0.20227   1.00
O2       0.30723    0.57917    0.20227   1.00
O2       0.24633    0.73827    0.22817   1.00
O2       0.33797    0.78693    0.26743   1.00
O2       0.20747    0.64743    0.26703   1.00
O2       0.49193    0.75367    0.22817   1.00
O2       0.43997    0.79253    0.26703   1.00
O2       0.44897    0.66203    0.26743   1.00
O2       0.26173    0.50807    0.22817   1.00
O2       0.21307    0.55103    0.26743   1.00
O2       0.35257    0.56003    0.26703   1.00
C1       0.24723    0.72687    0.20997   1.00
C1       0.47963    0.75277    0.20997   1.00
C1       0.27313    0.52037    0.20997   1.00
C1       0.39997    0.81063    0.27303   1.00
C1       0.18937    0.58933    0.27303   1.00
C1       0.41067    0.60003    0.27303   1.00
O1       0.33333    0.66667    0.59197   1.00
Zn1      0.33333    0.66667    0.62107   1.00
Zn1      0.37620    0.61510    0.58310   1.00
Zn1      0.38490    0.76110    0.58310   1.00
Zn1      0.23890    0.62380    0.58310   1.00
O2       0.35943    0.60527    0.63107   1.00
O2       0.39473    0.75417    0.63107   1.00
O2       0.24583    0.64057    0.63107   1.00
O2       0.40493    0.57967    0.60517   1.00
O2       0.45360    0.67130    0.56590   1.00
O2       0.31410    0.54080    0.56630   1.00
O2       0.42033    0.82527    0.60517   1.00
O2       0.45920    0.77330    0.56630   1.00
O2       0.32870    0.78230    0.56590   1.00
O2       0.17473    0.59507    0.60517   1.00
O2       0.21770    0.54640    0.56590   1.00
O2       0.22670    0.68590    0.56630   1.00
C1       0.39353    0.58057    0.62337   1.00
C1       0.41943    0.81297    0.62337   1.00
C1       0.18703    0.60647    0.62337   1.00
C1       0.47730    0.73330    0.56030   1.00
C1       0.25600    0.52270    0.56030   1.00
C1       0.26670    0.74400    0.56030   1.00
O1       0.33333    0.66667    0.09197   1.00
Zn1      0.33333    0.66667    0.12107   1.00
Zn1      0.38490    0.62380    0.08310   1.00
Zn1      0.23890    0.61510    0.08310   1.00
Zn1      0.37620    0.76110    0.08310   1.00
O2       0.39473    0.64057    0.13107   1.00
O2       0.24583    0.60527    0.13107   1.00
O2       0.35943    0.75417    0.13107   1.00
O2       0.42033    0.59507    0.10517   1.00
O2       0.32870    0.54640    0.06590   1.00
O2       0.45920    0.68590    0.06630   1.00
O2       0.17473    0.57967    0.10517   1.00
O2       0.22670    0.54080    0.06630   1.00
O2       0.21770    0.67130    0.06590   1.00
O2       0.40493    0.82527    0.10517   1.00
O2       0.45360    0.78230    0.06590   1.00
O2       0.31410    0.77330    0.06630   1.00
C1       0.41943    0.60647    0.12337   1.00
C1       0.18703    0.58057    0.12337   1.00
C1       0.39353    0.81297    0.12337   1.00
C1       0.26670    0.52270    0.06030   1.00
C1       0.47730    0.74400    0.06030   1.00
C1       0.25600    0.73330    0.06030   1.00
O1       0.33333    0.66667    0.74137   1.00
Zn1      0.33333    0.66667    0.71227   1.00
Zn1      0.29047    0.71823    0.75023   1.00
Zn1      0.28177    0.57223    0.75023   1.00
Zn1      0.42777    0.70953    0.75023   1.00
O2       0.30723    0.72807    0.70227   1.00
O2       0.27193    0.57917    0.70227   1.00
O2       0.42083    0.69277    0.70227   1.00
O2       0.26173    0.75367    0.72817   1.00
O2       0.21307    0.66203    0.76743   1.00
O2       0.35257    0.79253    0.76703   1.00
O2       0.24633    0.50807    0.72817   1.00
O2       0.20747    0.56003    0.76703   1.00
O2       0.33797    0.55103    0.76743   1.00
O2       0.49193    0.73827    0.72817   1.00
O2       0.44897    0.78693    0.76743   1.00
O2       0.43997    0.64743    0.76703   1.00
C1       0.27313    0.75277    0.70997   1.00
C1       0.24723    0.52037    0.70997   1.00
C1       0.47963    0.72687    0.70997   1.00
C1       0.18937    0.60003    0.77303   1.00
C1       0.41067    0.81063    0.77303   1.00
C1       0.39997    0.58933    0.77303   1.00
C4       0.86115    0.69450    0.49825   1.00
C4       0.83296    0.64003    0.48383   1.00
C3       0.92919    0.74980    0.49736   1.00
C3       0.87167    0.63214    0.46822   1.00
C3       0.81976    0.69363    0.51471   1.00
C3       0.76213    0.59042    0.48489   1.00
C2       0.91537    0.80092    0.52855   1.00
C2       0.77253    0.52758    0.45555   1.00
C3       0.95572    0.80135    0.51215   1.00
C3       0.84219    0.57784    0.45434   1.00
C3       0.84709    0.74680    0.52926   1.00
C3       0.73407    0.53449    0.47131   1.00
H1       0.96140    0.75436    0.48591   1.00
H1       0.92250    0.66536    0.46654   1.00
C5       0.75127    0.63983    0.51648   1.00
C5       0.71977    0.59644    0.49959   1.00
H1       1.00545    0.83980    0.51081   1.00
H1       0.87254    0.57505    0.44326   1.00
H1       0.81624    0.74650    0.54066   1.00
H1       0.68434    0.49710    0.47309   1.00
O3       0.71531    0.63299    0.53402   1.00
O3       0.64954    0.55743    0.49839   1.00
Si1      0.71387    0.58308    0.55212   1.00
Si1      0.60851    0.58391    0.48414   1.00
C6       0.67258    0.60648    0.57049   1.00
C6       0.66105    0.49829    0.54399   1.00
C6       0.79594    0.60270    0.56032   1.00
C6       0.65639    0.66008    0.47020   1.00
C6       0.56349    0.51567    0.46732   1.00
C6       0.54877    0.59028    0.49974   1.00
C6       0.70155    0.68499    0.57327   1.00
H2       0.62198    0.58699    0.56386   1.00
C6       0.65992    0.57650    0.59256   1.00
H2       0.62788    0.50383    0.53308   1.00
C6       0.69441    0.46242    0.53221   1.00
C6       0.61211    0.44427    0.55976   1.00
H2       0.82144    0.65801    0.56224   1.00
C6       0.80122    0.57324    0.58132   1.00
C6       0.84249    0.58821    0.54589   1.00
C6       0.70547    0.72648    0.48214   1.00
C6       0.69633    0.65975    0.45083   1.00
H2       0.61669    0.66901    0.46413   1.00
H2       0.60314    0.51693    0.45762   1.00
C6       0.52646    0.44273    0.47698   1.00
C6       0.51074    0.51948    0.45286   1.00
H2       0.50627    0.53802    0.50072   1.00
C6       0.57078    0.61232    0.52214   1.00
C6       0.51761    0.63428    0.49201   1.00
H2       0.70228    0.70952    0.55893   1.00
H2       0.75352    0.71006    0.57925   1.00
H2       0.67007    0.69497    0.58372   1.00
H2       0.61224    0.57067    0.59854   1.00
H2       0.65628    0.52684    0.59327   1.00
H2       0.70006    0.61003    0.60307   1.00
H2       0.65554    0.41686    0.52439   1.00
H2       0.72966    0.49518    0.52057   1.00
H2       0.72157    0.44644    0.54249   1.00
H2       0.57870    0.46005    0.56687   1.00
H2       0.57856    0.39520    0.55248   1.00
H2       0.64082    0.43553    0.57153   1.00
H2       0.76746    0.51804    0.58193   1.00
H2       0.85311    0.58396    0.58449   1.00
H2       0.78867    0.59658    0.59373   1.00
H2       0.83322    0.53629    0.54755   1.00
H2       0.83601    0.59541    0.52997   1.00
H2       0.89624    0.62271    0.54948   1.00
H2       0.75436    0.72992    0.48521   1.00
H2       0.71606    0.77164    0.47332   1.00
H2       0.68376    0.72992    0.49652   1.00
H2       0.71511    0.70739    0.44237   1.00
H2       0.74051    0.65490    0.45454   1.00
H2       0.66417    0.61887    0.44037   1.00
H2       0.51009    0.40370    0.46517   1.00
H2       0.56040    0.43523    0.48710   1.00
H2       0.48142    0.43323    0.48561   1.00
H2       0.53289    0.56825    0.44493   1.00
H2       0.49361    0.47977    0.44123   1.00
H2       0.46570    0.51189    0.46114   1.00
H2       0.61507    0.66340    0.52320   1.00
H2       0.52953    0.61112    0.53106   1.00
H2       0.58389    0.57722    0.52930   1.00
H2       0.47420    0.62577    0.50139   1.00
H2       0.55503    0.68871    0.49253   1.00
H2       0.49880    0.62117    0.47651   1.00
C4       0.31247    0.16822    0.50053   1.00
C4       0.36550    0.19255    0.48566   1.00
C3       0.31388    0.13631    0.51892   1.00
C3       0.42210    0.18187    0.48683   1.00
C3       0.25401    0.17497    0.49682   1.00
C3       0.36247    0.22986    0.46863   1.00
C2       0.20163    0.11735    0.52936   1.00
C2       0.46987    0.24205    0.45474   1.00
C3       0.25985    0.11122    0.53289   1.00
C3       0.47320    0.20648    0.47190   1.00
C3       0.20062    0.15046    0.51128   1.00
C3       0.41295    0.25168    0.45332   1.00
H1       0.35431    0.13058    0.52273   1.00
H1       0.42766    0.15555    0.49849   1.00
C5       0.24939    0.20641    0.47874   1.00
C5       0.30887    0.24472    0.46685   1.00
H1       0.26349    0.08817    0.54586   1.00
H1       0.51325    0.19774    0.47363   1.00
H1       0.15987    0.15736    0.50868   1.00
H1       0.40773    0.27448    0.44059   1.00
O3       0.18861    0.20268    0.47364   1.00
O3       0.31202    0.29168    0.45286   1.00
Si1      0.13483    0.14164    0.45880   1.00
Si1      0.35237    0.37236    0.45891   1.00
C6       0.06673    0.15799    0.46142   1.00
C6       0.16886    0.16037    0.43406   1.00
C6       0.11201    0.05937    0.46769   1.00
C6       0.39277    0.39611    0.48285   1.00
C6       0.41385    0.40961    0.43968   1.00
C6       0.29420    0.40204    0.45624   1.00
C6       0.04932    0.16859    0.48367   1.00
H2       0.08704    0.20767    0.45410   1.00
C6       -0.00397   0.11086    0.45101   1.00
H2       0.20159    0.21566    0.43466   1.00
C6       0.21599    0.13192    0.42717   1.00
C6       0.11926    0.14629    0.41582   1.00
H2       0.10034    0.06213    0.48363   1.00
C6       0.04639    -0.00230   0.45843   1.00
C6       0.16626    0.03541    0.46740   1.00
C6       0.34820    0.36344    0.50219   1.00
C6       0.46097    0.39567    0.48639   1.00
H2       0.40833    0.45011    0.48364   1.00
H2       0.44952    0.39166    0.44286   1.00
C6       0.38823    0.38566    0.41751   1.00
C6       0.45695    0.48923    0.43908   1.00
H2       0.29428    0.41138    0.43999   1.00
C6       0.21836    0.35026    0.46149   1.00
C6       0.31127    0.47050    0.46696   1.00
H2       0.09391    0.20904    0.49139   1.00
H2       0.03052    0.12193    0.49261   1.00
H2       0.01031    0.18356    0.48385   1.00
H2       -0.02733   0.14100    0.44648   1.00
H2       0.00008    0.08557    0.43751   1.00
H2       -0.04010   0.07126    0.46122   1.00
H2       0.24485    0.15849    0.41360   1.00
H2       0.25348    0.13922    0.43868   1.00
H2       0.18623    0.07773    0.42351   1.00
H2       0.09044    0.17271    0.41772   1.00
H2       0.14726    0.16488    0.40155   1.00
H2       0.08367    0.09174    0.41406   1.00
H2       0.04889    -0.00209   0.44189   1.00
H2       0.03892    -0.05136   0.46376   1.00
H2       0.00069    -0.00156   0.46302   1.00
H2       0.16695    0.01234    0.45293   1.00
H2       0.21783    0.07616    0.47025   1.00
H2       0.15431    -0.00312   0.47914   1.00
H2       0.34180    0.31340    0.50543   1.00
H2       0.37243    0.39533    0.51549   1.00
H2       0.29783    0.35806    0.50083   1.00
H2       0.48440    0.42053    0.50076   1.00
H2       0.45315    0.34425    0.48712   1.00
H2       0.49862    0.42361    0.47463   1.00
H2       0.43151    0.40235    0.40717   1.00
H2       0.35848    0.33008    0.41648   1.00
H2       0.35678    0.40620    0.41193   1.00
H2       0.47873    0.51053    0.45389   1.00
H2       0.49965    0.50591    0.42851   1.00
H2       0.42638    0.51149    0.43404   1.00
H2       0.21179    0.33466    0.47736   1.00
H2       0.18514    0.37124    0.45830   1.00
H2       0.20040    0.30479    0.45225   1.00
H2       0.27730    0.48859    0.46167   1.00
H2       0.30545    0.46425    0.48341   1.00
H2       0.36315    0.51088    0.46371   1.00
C4       0.83290    0.14515    0.50047   1.00
C4       0.80841    0.17360    0.48557   1.00
C3       0.87646    0.18326    0.51674   1.00
C3       0.82993    0.24414    0.48436   1.00
C3       0.81394    0.07496    0.49901   1.00
C3       0.75953    0.12958    0.47101   1.00
C2       0.88296    0.08472    0.52940   1.00
C2       0.75764    0.22738    0.45470   1.00
C3       0.90113    0.15403    0.53074   1.00
C3       0.80478    0.27024    0.46947   1.00
C3       0.83835    0.04611    0.51351   1.00
C3       0.73706    0.15731    0.45560   1.00
H1       0.89135    0.23332    0.51892   1.00
H1       0.86480    0.27869    0.49418   1.00
C5       0.77050    0.03398    0.48311   1.00
C5       0.73377    0.05826    0.47175   1.00
H1       0.93289    0.18423    0.54210   1.00
H1       0.82172    0.32160    0.46944   1.00
H1       0.82280    -0.00476   0.51259   1.00
H1       0.70543    0.12576    0.44452   1.00
O3       0.76155    -0.03005   0.47974   1.00
O3       0.67726    0.01368    0.46054   1.00
Si1      0.80966    -0.04016   0.46328   1.00
Si1      0.60151    -0.01196   0.46988   1.00
C6       0.78212    -0.12632   0.46890   1.00
C6       0.78284    -0.03155   0.43891   1.00
C6       0.89772    0.01237    0.46804   1.00
C6       0.59541    0.02104    0.49360   1.00
C6       0.56249    0.01209    0.45116   1.00
C6       0.55878    -0.10170   0.47074   1.00
C6       0.77934    -0.14429   0.49198   1.00
H2       0.72904    -0.15195   0.46390   1.00
C6       0.81486    -0.16488   0.45812   1.00
H2       0.72997    -0.04529   0.44166   1.00
C6       0.81749    0.04097    0.42904   1.00
C6       0.78005    -0.08036   0.42165   1.00
H2       0.90100    0.00465    0.48428   1.00
C6       0.94737    -0.00733   0.45741   1.00
C6       0.93221    0.09152    0.46472   1.00
C6       0.63248    0.01106    0.51217   1.00
C6       0.60923    0.09598    0.49497   1.00
H2       0.54110    -0.00984   0.49699   1.00
H2       0.58922    0.06761    0.45217   1.00
C6       0.57221    -0.00409   0.42872   1.00
C6       0.48492    -0.01266   0.45379   1.00
H2       0.54054    -0.11723   0.45525   1.00
C6       0.60363    -0.13455   0.47530   1.00
C6       0.49447    -0.13928   0.48470   1.00
H2       0.74788    -0.12897   0.50054   1.00
H2       0.83029    -0.11900   0.49870   1.00
H2       0.75692    -0.19922   0.49422   1.00
H2       0.77658    -0.21864   0.45610   1.00
H2       0.83548    -0.14423   0.44324   1.00
H2       0.85604    -0.16380   0.46704   1.00
H2       0.78719    0.04215    0.41629   1.00
H2       0.82199    0.07982    0.43965   1.00
H2       0.86813    0.05553    0.42325   1.00
H2       0.74807    -0.13377   0.42592   1.00
H2       0.75772    -0.07335   0.40778   1.00
H2       0.83104    -0.07088   0.41789   1.00
H2       0.93908    -0.01232   0.44103   1.00
H2       1.00093    0.03058    0.46009   1.00
H2       0.94120    -0.05480   0.46338   1.00
H2       0.94940    0.10617    0.44911   1.00
H2       0.89912    0.11185    0.46827   1.00
H2       0.97712    0.11820    0.47446   1.00
H2       0.68620    0.05004    0.51270   1.00
H2       0.60954    0.01472    0.52637   1.00
H2       0.62898    -0.03866   0.51208   1.00
H2       0.59417    0.10549    0.50983   1.00
H2       0.66288    0.13352    0.49298   1.00
H2       0.57990    0.10617    0.48381   1.00
H2       0.55652    0.02274    0.41815   1.00
H2       0.62567    0.01288    0.42544   1.00
H2       0.54222    -0.05848   0.42536   1.00
H2       0.47359    -0.00154   0.46894   1.00
H2       0.46901    0.01345    0.44301   1.00
H2       0.45352    -0.06737   0.45104   1.00
H2       0.62722    -0.12058   0.49025   1.00
H2       0.57409    -0.19013   0.47438   1.00
H2       0.64413    -0.11763   0.46413   1.00
H2       0.46679    -0.19406   0.48157   1.00
H2       0.50855    -0.13254   0.50074   1.00
H2       0.45869    -0.12105   0.48221   1.00
C4       0.69445    0.86132    0.00174   1.00
C4       0.63995    0.83308    0.01615   1.00
C3       0.74828    0.93015    0.00216   1.00
C3       0.63047    0.87226    0.03126   1.00
C3       0.69512    0.81912    -0.01424   1.00
C3       0.59201    0.76170    0.01561   1.00
C2       0.80094    0.91546    -0.02854   1.00
C2       0.52756    0.77244    0.04444   1.00
C3       0.79986    0.95662    -0.01262   1.00
C3       0.57621    0.84271    0.04514   1.00
C3       0.74832    0.84645    -0.02878   1.00
C3       0.53604    0.73346    0.02918   1.00
H1       0.75171    0.96301    0.01326   1.00
H1       0.66245    0.92349    0.03255   1.00
C5       0.64283    0.74982    -0.01554   1.00
C5       0.59972    0.71896    0.00144   1.00
H1       0.83720    1.00692    -0.01162   1.00
H1       0.57223    0.87344    0.05586   1.00
H1       0.74917    0.81509    -0.03983   1.00
H1       0.49977    0.68315    0.02775   1.00
O3       0.63725    0.71262    -0.03270   1.00
O3       0.56252    0.64877    0.00323   1.00
Si1      0.58662    0.70770    -0.05107   1.00
Si1      0.59084    0.61080    0.01809   1.00
C6       0.61199    0.66628    -0.06881   1.00
C6       0.50220    0.65361    -0.04283   1.00
C6       0.60371    0.78815    -0.06010   1.00
C6       0.66655    0.66185    0.03193   1.00
C6       0.52294    0.56578    0.03502   1.00
C6       0.59953    0.55094    0.00323   1.00
C6       0.69084    0.69726    -0.07146   1.00
H2       0.59393    0.61657    -0.06172   1.00
C6       0.58206    0.65069    -0.09090   1.00
H2       0.50895    0.62229    -0.03152   1.00
C6       0.46446    0.68617    -0.03166   1.00
C6       0.44906    0.60215    -0.05835   1.00
H2       0.65908    0.81497    -0.06198   1.00
C6       0.57366    0.79028    -0.08132   1.00
C6       0.58723    0.83468    -0.04629   1.00
C6       0.73242    0.71124    0.01982   1.00
C6       0.66470    0.70286    0.05082   1.00
H2       0.67702    0.62378    0.03851   1.00
H2       0.52276    0.60566    0.04426   1.00
C6       0.45010    0.52592    0.02536   1.00
C6       0.52860    0.51554    0.05010   1.00
H2       0.54788    0.50727    0.00243   1.00
C6       0.62129    0.57120    -0.01928   1.00
C6       0.64535    0.52267    0.01158   1.00
H2       0.71569    0.70022    -0.05699   1.00
H2       0.71453    0.74858    -0.07789   1.00
H2       0.70217    0.66573    -0.08148   1.00
H2       0.57785    0.60313    -0.09636   1.00
H2       0.53168    0.64527    -0.09186   1.00
H2       0.61480    0.69027    -0.10167   1.00
H2       0.41945    0.64715    -0.02367   1.00
H2       0.49647    0.72304    -0.02024   1.00
H2       0.44729    0.71127    -0.04234   1.00
H2       0.46634    0.56926    -0.06498   1.00
H2       0.40030    0.56817    -0.05098   1.00
H2       0.43921    0.62889    -0.07050   1.00
H2       0.51872    0.75512    -0.08186   1.00
H2       0.58274    0.84128    -0.08502   1.00
H2       0.59792    0.77763    -0.09344   1.00
H2       0.53476    0.82357    -0.04815   1.00
H2       0.59470    0.83008    -0.03027   1.00
H2       0.62044    0.88831    -0.05029   1.00
H2       0.73421    0.75905    0.01621   1.00
H2       0.77794    0.72410    0.02878   1.00
H2       0.73677    0.68870    0.00572   1.00
H2       0.71245    0.72380    0.05935   1.00
H2       0.65821    0.74569    0.04658   1.00
H2       0.62420    0.67083    0.06141   1.00
H2       0.41091    0.50958    0.03712   1.00
H2       0.44132    0.55799    0.01481   1.00
H2       0.44208    0.48057    0.01720   1.00
H2       0.57739    0.53977    0.05806   1.00
H2       0.48876    0.49842    0.06169   1.00
H2       0.52253    0.47029    0.04230   1.00
H2       0.67169    0.61638    -0.02054   1.00
H2       0.62158    0.52983    -0.02772   1.00
H2       0.58516    0.58213    -0.02679   1.00
H2       0.63830    0.47889    0.00265   1.00
H2       0.69940    0.56129    0.01095   1.00
H2       0.63261    0.50522    0.02721   1.00
C4       0.16821    0.31247    -0.00053   1.00
C4       0.19254    0.36550    0.01434   1.00
C3       0.13623    0.31384    -0.01891   1.00
C3       0.18180    0.42206    0.01318   1.00
C3       0.17504    0.25405    0.00317   1.00
C3       0.22993    0.36251    0.03136   1.00
C2       0.11735    0.20163    -0.02936   1.00
C2       0.24205    0.46987    0.04526   1.00
C3       0.11114    0.25981    -0.03288   1.00
C3       0.20640    0.47316    0.02812   1.00
C3       0.15053    0.20065    -0.01130   1.00
C3       0.25175    0.41298    0.04667   1.00
H1       0.13044    0.35425    -0.02272   1.00
H1       0.15542    0.42759    0.00153   1.00
C5       0.20655    0.24947    0.02124   1.00
C5       0.24486    0.30896    0.03312   1.00
H1       0.08803    0.26343    -0.04584   1.00
H1       0.19762    0.51317    0.02640   1.00
H1       0.15748    0.15994    -0.00870   1.00
H1       0.27461    0.40779    0.05938   1.00
O3       0.20290    0.18871    0.02633   1.00
O3       0.29188    0.31216    0.04710   1.00
Si1      0.14193    0.13490    0.04118   1.00
Si1      0.37254    0.35256    0.04103   1.00
C6       0.15835    0.06685    0.03854   1.00
C6       0.16070    0.16893    0.06592   1.00
C6       0.05962    0.11200    0.03232   1.00
C6       0.39619    0.39297    0.01709   1.00
C6       0.40980    0.41405    0.06025   1.00
C6       0.40230    0.29445    0.04368   1.00
C6       0.16890    0.04946    0.01629   1.00
H2       0.20805    0.08720    0.04585   1.00
C6       0.11130    -0.00386   0.04896   1.00
H2       0.21599    0.20170    0.06530   1.00
C6       0.13221    0.21601    0.07283   1.00
C6       0.14672    0.11935    0.08415   1.00
H2       0.06234    0.10034    0.01638   1.00
C6       -0.00199   0.04635    0.04158   1.00
C6       0.03558    0.16620    0.03262   1.00
C6       0.36349    0.34839    -0.00225   1.00
C6       0.39567    0.46113    0.01355   1.00
H2       0.45020    0.40858    0.01628   1.00
H2       0.39180    0.44969    0.05708   1.00
C6       0.38594    0.38843    0.08243   1.00
C6       0.48942    0.45722    0.06083   1.00
H2       0.41169    0.29455    0.05992   1.00
C6       0.35056    0.21860    0.03843   1.00
C6       0.47075    0.31159    0.03294   1.00
H2       0.20931    0.09407    0.00856   1.00
H2       0.12222    0.03061    0.00737   1.00
H2       0.18393    0.01048    0.01610   1.00
H2       0.14149    -0.02718   0.05348   1.00
H2       0.08603    0.00016    0.06247   1.00
H2       0.07169    -0.04001   0.03876   1.00
H2       0.15880    0.24488    0.08639   1.00
H2       0.13944    0.25349    0.06132   1.00
H2       0.07803    0.18621    0.07650   1.00
H2       0.17319    0.09057    0.08224   1.00
H2       0.16533    0.14735    0.09842   1.00
H2       0.09219    0.08371    0.08593   1.00
H2       -0.00173   0.04886    0.05813   1.00
H2       -0.05108   0.03884    0.03627   1.00
H2       -0.00122   0.00067    0.03699   1.00
H2       0.01254    0.16687    0.04710   1.00
H2       0.07629    0.21779    0.02977   1.00
H2       -0.00299   0.15421    0.02089   1.00
H2       0.31342    0.34194    -0.00547   1.00
H2       0.39534    0.37263    -0.01556   1.00
H2       0.35816    0.29804    -0.00089   1.00
H2       0.42048    0.48457    -0.00082   1.00
H2       0.34423    0.45326    0.01284   1.00
H2       0.42362    0.49880    0.02531   1.00
H2       0.40261    0.43170    0.09276   1.00
H2       0.33036    0.35863    0.08347   1.00
H2       0.40653    0.35701    0.08800   1.00
H2       0.51066    0.47901    0.04602   1.00
H2       0.50610    0.49991    0.07140   1.00
H2       0.51174    0.42668    0.06586   1.00
H2       0.33492    0.21202    0.02257   1.00
H2       0.37160    0.18542    0.04161   1.00
H2       0.30512    0.20060    0.04769   1.00
H2       0.48890    0.27766    0.03821   1.00
H2       0.46446    0.30576    0.01649   1.00
H2       0.51111    0.36349    0.03618   1.00
C4       0.14515    0.83290    -0.00047   1.00
C4       0.17360    0.80841    0.01443   1.00
C3       0.18326    0.87646    -0.01674   1.00
C3       0.24414    0.82992    0.01564   1.00
C3       0.07496    0.81394    0.00099   1.00
C3       0.12958    0.75953    0.02899   1.00
C2       0.08472    0.88296    -0.02940   1.00
C2       0.22738    0.75764    0.04530   1.00
C3       0.15403    0.90113    -0.03074   1.00
C3       0.27024    0.80478    0.03053   1.00
C3       0.04611    0.83835    -0.01351   1.00
C3       0.15731    0.73706    0.04440   1.00
H1       0.23332    0.89135    -0.01892   1.00
H1       0.27869    0.86480    0.00582   1.00
C5       0.03398    0.77050    0.01689   1.00
C5       0.05826    0.73377    0.02825   1.00
H1       0.18423    0.93289    -0.04210   1.00
H1       0.32160    0.82172    0.03056   1.00
H1       -0.00476   0.82280    -0.01259   1.00
H1       0.12576    0.70543    0.05548   1.00
O3       -0.03005   0.76155    0.02026   1.00
O3       0.01368    0.67726    0.03946   1.00
Si1      -0.04016   0.80967    0.03672   1.00
Si1      -0.01196   0.60151    0.03012   1.00
C6       -0.12632   0.78212    0.03110   1.00
C6       -0.03155   0.78284    0.06109   1.00
C6       0.01237    0.89772    0.03196   1.00
C6       0.02104    0.59541    0.00640   1.00
C6       0.01209    0.56249    0.04884   1.00
C6       -0.10170   0.55878    0.02926   1.00
C6       -0.14428   0.77934    0.00802   1.00
H2       -0.15195   0.72905    0.03610   1.00
C6       -0.16488   0.81487    0.04188   1.00
H2       -0.04529   0.72997    0.05834   1.00
C6       0.04098    0.81749    0.07096   1.00
C6       -0.08036   0.78005    0.07835   1.00
H2       0.00465    0.90100    0.01572   1.00
C6       -0.00733   0.94737    0.04259   1.00
C6       0.09153    0.93221    0.03528   1.00
C6       0.01105    0.63248    -0.01217   1.00
C6       0.09598    0.60923    0.00503   1.00
H2       -0.00984   0.54110    0.00301   1.00
H2       0.06761    0.58922    0.04783   1.00
C6       -0.00409   0.57221    0.07128   1.00
C6       -0.01266   0.48492    0.04621   1.00
H2       -0.11723   0.54054    0.04475   1.00
C6       -0.13455   0.60363    0.02471   1.00
C6       -0.13928   0.49447    0.01530   1.00
H2       -0.12897   0.74788    -0.00054   1.00
H2       -0.11900   0.83029    0.00130   1.00
H2       -0.19922   0.75692    0.00578   1.00
H2       -0.21864   0.77658    0.04390   1.00
H2       -0.14423   0.83549    0.05676   1.00
H2       -0.16380   0.85604    0.03296   1.00
H2       0.04215    0.78720    0.08371   1.00
H2       0.07982    0.82199    0.06035   1.00
H2       0.05553    0.86813    0.07675   1.00
H2       -0.13377   0.74808    0.07408   1.00
H2       -0.07335   0.75772    0.09222   1.00
H2       -0.07088   0.83104    0.08211   1.00
H2       -0.01232   0.93908    0.05897   1.00
H2       0.03058    1.00093    0.03991   1.00
H2       -0.05480   0.94121    0.03662   1.00
H2       0.10618    0.94940    0.05089   1.00
H2       0.11185    0.89912    0.03173   1.00
H2       0.11820    0.97712    0.02554   1.00
H2       0.05003    0.68620    -0.01270   1.00
H2       0.01471    0.60954    -0.02637   1.00
H2       -0.03867   0.62898    -0.01208   1.00
H2       0.10549    0.59417    -0.00983   1.00
H2       0.13352    0.66288    0.00702   1.00
H2       0.10617    0.57990    0.01619   1.00
H2       0.02274    0.55652    0.08185   1.00
H2       0.01288    0.62567    0.07456   1.00
H2       -0.05848   0.54222    0.07464   1.00
H2       -0.00154   0.47359    0.03106   1.00
H2       0.01345    0.46901    0.05699   1.00
H2       -0.06737   0.45352    0.04896   1.00
H2       -0.12058   0.62722    0.00975   1.00
H2       -0.19013   0.57409    0.02562   1.00
H2       -0.11763   0.64413    0.03587   1.00
H2       -0.19406   0.46679    0.01843   1.00
H2       -0.13254   0.50855    -0.00074   1.00
H2       -0.12106   0.45869    0.01779   1.00
C4       0.13874    0.31072    0.50009   1.00
C4       0.16696    0.36360    0.51501   1.00
C3       0.07019    0.27970    0.49325   1.00
C3       0.12794    0.38636    0.52590   1.00
C3       0.18065    0.28636    0.49166   1.00
C3       0.23815    0.39607    0.51940   1.00
C2       0.08457    0.20172    0.47061   1.00
C2       0.22753    0.46978    0.54529   1.00
C3       0.04370    0.22645    0.47900   1.00
C3       0.15747    0.43842    0.54049   1.00
C3       0.15332    0.23346    0.47702   1.00
C3       0.26633    0.44639    0.53477   1.00
H1       0.03757    0.29505    0.49837   1.00
H1       0.07685    0.36550    0.52365   1.00
C5       0.24966    0.31519    0.49783   1.00
C5       0.28076    0.37783    0.50859   1.00
H1       -0.00640   0.20564    0.47474   1.00
H1       0.12687    0.45320    0.54776   1.00
H1       0.18451    0.21781    0.47069   1.00
H1       0.31643    0.46604    0.53864   1.00
O3       0.28642    0.28426    0.49230   1.00
O3       0.35098    0.41728    0.50966   1.00
Si1      0.29004    0.22933    0.50755   1.00
Si1      0.39010    0.48291    0.49460   1.00
C6       0.33143    0.20129    0.49066   1.00
C6       0.34367    0.27555    0.52795   1.00
C6       0.20897    0.16177    0.51459   1.00
C6       0.34022    0.50214    0.47820   1.00
C6       0.43512    0.55101    0.51147   1.00
C6       0.44994    0.47175    0.48053   1.00
C6       0.30120    0.18317    0.46867   1.00
H2       0.38148    0.24688    0.48898   1.00
C6       0.34594    0.14270    0.49676   1.00
H2       0.37568    0.32566    0.52115   1.00
C6       0.31079    0.28816    0.54713   1.00
C6       0.39420    0.25335    0.53643   1.00
H2       0.18264    0.14632    0.50000   1.00
C6       0.20567    0.09636    0.52377   1.00
C6       0.16242    0.17631    0.52902   1.00
C6       0.29094    0.44567    0.46310   1.00
C6       0.29960    0.53556    0.48705   1.00
H2       0.37891    0.54225    0.46867   1.00
H2       0.39532    0.55694    0.51888   1.00
C6       0.47394    0.53829    0.52906   1.00
C6       0.48630    0.62203    0.50213   1.00
H2       0.49318    0.48855    0.49083   1.00
C6       0.42903    0.39692    0.47492   1.00
C6       0.47929    0.51453    0.46066   1.00
H2       0.29907    0.22576    0.46165   1.00
H2       0.24962    0.13908    0.46873   1.00
H2       0.33272    0.17137    0.45879   1.00
H2       0.39355    0.15153    0.48983   1.00
H2       0.35069    0.13893    0.51304   1.00
H2       0.30614    0.09281    0.49145   1.00
H2       0.34976    0.32870    0.55654   1.00
H2       0.27452    0.30450    0.54315   1.00
H2       0.28492    0.24239    0.55649   1.00
H2       0.42730    0.25265    0.52451   1.00
H2       0.42802    0.28912    0.54793   1.00
H2       0.36672    0.20298    0.54345   1.00
H2       0.24031    0.10916    0.53665   1.00
H2       0.15433    0.05931    0.52898   1.00
H2       0.21829    0.06946    0.51249   1.00
H2       0.17285    0.17276    0.54500   1.00
H2       0.16772    0.22612    0.52680   1.00
H2       0.10874    0.13881    0.52638   1.00
H2       0.24272    0.41002    0.47028   1.00
H2       0.27893    0.46851    0.45029   1.00
H2       0.31318    0.41670    0.45684   1.00
H2       0.27945    0.55303    0.47480   1.00
H2       0.25625    0.50006    0.49618   1.00
H2       0.33168    0.58033    0.49627   1.00
H2       0.49028    0.57830    0.54055   1.00
H2       0.44117    0.48987    0.53673   1.00
H2       0.51918    0.53778    0.52361   1.00
H2       0.46285    0.63619    0.49004   1.00
H2       0.50343    0.66190    0.51371   1.00
H2       0.53150    0.62266    0.49606   1.00
H2       0.38417    0.37320    0.46516   1.00
H2       0.47036    0.39411    0.46728   1.00
H2       0.41728    0.36646    0.48862   1.00
H2       0.52295    0.51103    0.45509   1.00
H2       0.44111    0.49642    0.44859   1.00
H2       0.49725    0.56847    0.46317   1.00
C4       0.69073    0.82820    0.50057   1.00
C4       0.63770    0.80388    0.51544   1.00
C3       0.73851    0.80518    0.49909   1.00
C3       0.63096    0.75886    0.53141   1.00
C3       0.69751    0.87917    0.48651   1.00
C3       0.58819    0.82524    0.51441   1.00
C2       0.79861    0.88239    0.47072   1.00
C2       0.52989    0.75821    0.54518   1.00
C3       0.79120    0.83176    0.48466   1.00
C3       0.57819    0.73613    0.54577   1.00
C3       0.75024    0.90442    0.47182   1.00
C3       0.53715    0.80406    0.52952   1.00
H1       0.73628    0.76824    0.50841   1.00
H1       0.66444    0.74159    0.53317   1.00
C5       0.65141    0.90438    0.48716   1.00
C5       0.59014    0.86806    0.49843   1.00
H1       0.82455    0.81350    0.48441   1.00
H1       0.57551    0.70313    0.55689   1.00
H1       0.75332    0.93959    0.46148   1.00
H1       0.50477    0.82325    0.52932   1.00
O3       0.66474    0.96110    0.47595   1.00
O3       0.53578    0.87829    0.49482   1.00
Si1      0.70554    1.03664    0.48632   1.00
Si1      0.47256    0.82317    0.48090   1.00
C6       0.71641    1.08420    0.46402   1.00
C6       0.64890    1.04316    0.50329   1.00
C6       0.78486    1.05581    0.49686   1.00
C6       0.47537    0.75115    0.47182   1.00
C6       0.40171    0.79638    0.49691   1.00
C6       0.46366    0.86840    0.46051   1.00
C6       0.74324    1.06308    0.44502   1.00
H2       0.66403    1.07034    0.46032   1.00
C6       0.75765    1.16425    0.46431   1.00
H2       0.59939    1.00661    0.49692   1.00
C6       0.64729    1.02077    0.52583   1.00
C6       0.64918    1.11232    0.50457   1.00
H2       0.80744    1.04087    0.48467   1.00
C6       0.83696    1.13258    0.50147   1.00
C6       0.78671    1.01712    0.51643   1.00
C6       0.53813    0.76350    0.45873   1.00
C6       0.46091    0.69157    0.48675   1.00
H2       0.43197    0.72824    0.46146   1.00
H2       0.40905    0.76629    0.50851   1.00
C6       0.39718    0.85399    0.50872   1.00
C6       0.32961    0.74914    0.48754   1.00
H2       0.43503    0.89094    0.46695   1.00
C6       0.53072    0.92998    0.45224   1.00
C6       0.42238    0.82697    0.44147   1.00
H2       0.71083    1.00903    0.44148   1.00
H2       0.79511    1.07282    0.44745   1.00
H2       0.74356    1.09133    0.43153   1.00
H2       0.73596    1.18441    0.45335   1.00
H2       0.75720    1.18551    0.47905   1.00
H2       0.81094    1.18466    0.46000   1.00
H2       0.60124    1.01340    0.53349   1.00
H2       0.64653    0.97245    0.52694   1.00
H2       0.69106    1.05932    0.53430   1.00
H2       0.64039    1.12791    0.48974   1.00
H2       0.60835    1.10806    0.51443   1.00
H2       0.69741    1.15276    0.51068   1.00
H2       0.81400    1.15521    0.51098   1.00
H2       0.88254    1.13907    0.50924   1.00
H2       0.85561    1.16206    0.48758   1.00
H2       0.78428    1.04212    0.53030   1.00
H2       0.74557    0.96471    0.51717   1.00
H2       0.83433    1.01581    0.51695   1.00
H2       0.58135    0.77243    0.46815   1.00
H2       0.52534    0.71884    0.44936   1.00
H2       0.55472    0.80662    0.44848   1.00
H2       0.45498    0.64717    0.47840   1.00
H2       0.50220    0.70561    0.49753   1.00
H2       0.41375    0.67425    0.49524   1.00
H2       0.35865    0.83201    0.52068   1.00
H2       0.44549    0.88886    0.51612   1.00
H2       0.38352    0.88384    0.49879   1.00
H2       0.32737    0.70602    0.47945   1.00
H2       0.29093    0.72798    0.49949   1.00
H2       0.31514    0.77719    0.47710   1.00
H2       0.56533    0.91426    0.44602   1.00
H2       0.52043    0.95759    0.44047   1.00
H2       0.55719    0.96594    0.46442   1.00
H2       0.41164    0.85881    0.43139   1.00
H2       0.45063    0.80817    0.43274   1.00
H2       0.37329    0.78347    0.44568   1.00
C4       0.17183    0.86248    0.50055   1.00
C4       0.19616    0.83379    0.51541   1.00
C3       0.19576    0.93342    0.49882   1.00
C3       0.24218    0.87235    0.53117   1.00
C3       0.11990    0.81815    0.48675   1.00
C3       0.17376    0.76266    0.51463   1.00
C2       0.11760    0.91618    0.47072   1.00
C2       0.24180    0.77172    0.54518   1.00
C3       0.16916    0.95954    0.48440   1.00
C3       0.26489    0.84233    0.54553   1.00
C3       0.09464    0.84563    0.47206   1.00
C3       0.19498    0.73288    0.52976   1.00
H1       0.23339    0.96820    0.50794   1.00
H1       0.26022    0.92330    0.53274   1.00
C5       0.09375    0.74671    0.48765   1.00
C5       0.12988    0.72146    0.49888   1.00
H1       0.18811    1.01125    0.48396   1.00
H1       0.29863    0.87284    0.55648   1.00
H1       0.05875    0.81340    0.46190   1.00
H1       0.17508    0.68120    0.52975   1.00
O3       0.03628    0.70343    0.47671   1.00
O3       0.11849    0.65635    0.49547   1.00
Si1      -0.03872   0.67012    0.48738   1.00
Si1      0.17237    0.64665    0.48142   1.00
C6       -0.08752   0.63293    0.46532   1.00
C6       -0.04544   0.60731    0.50453   1.00
C6       -0.05623   0.73155    0.49782   1.00
C6       0.24459    0.72048    0.47194   1.00
C6       0.19895    0.60250    0.49746   1.00
C6       0.12567    0.59192    0.46130   1.00
C6       -0.06668   0.68007    0.44613   1.00
H2       -0.07459   0.59370    0.46168   1.00
C6       -0.16752   0.59515    0.46593   1.00
H2       -0.00971   0.59336    0.49809   1.00
C6       -0.02183   0.62890    0.52695   1.00
C6       -0.11509   0.53908    0.50618   1.00
H2       -0.04137   0.76858    0.48549   1.00
C6       -0.13255   0.70816    0.50271   1.00
C6       -0.01628   0.77266    0.51717   1.00
C6       0.23256    0.77092    0.45876   1.00
C6       0.30511    0.76564    0.48658   1.00
H2       0.26648    0.69898    0.46157   1.00
H2       0.22994    0.64024    0.50888   1.00
C6       0.14135    0.54133    0.50959   1.00
C6       0.24493    0.57622    0.48802   1.00
H2       0.10278    0.54099    0.46793   1.00
C6       0.06432    0.59810    0.45319   1.00
C6       0.16586    0.59053    0.44214   1.00
H2       -0.01289   0.70082    0.44239   1.00
H2       -0.07552   0.72281    0.44848   1.00
H2       -0.09578   0.65178    0.43280   1.00
H2       -0.18872   0.55280    0.45514   1.00
H2       -0.18827   0.57428    0.48078   1.00
H2       -0.18742   0.62844    0.46159   1.00
H2       -0.01482   0.59011    0.53469   1.00
H2       0.02691    0.67608    0.52781   1.00
H2       -0.05958   0.63518    0.53552   1.00
H2       -0.13165   0.51409    0.49146   1.00
H2       -0.11102   0.50258    0.51612   1.00
H2       -0.15477   0.54788    0.51238   1.00
H2       -0.15530   0.66300    0.51240   1.00
H2       -0.13797   0.74803    0.51040   1.00
H2       -0.16260   0.69712    0.48893   1.00
H2       -0.04088   0.74603    0.53119   1.00
H2       0.03590    0.78317    0.51774   1.00
H2       -0.01415   0.82199    0.51757   1.00
H2       0.22472    0.80606    0.46811   1.00
H2       0.27694    0.80189    0.44918   1.00
H2       0.18890    0.74443    0.44870   1.00
H2       0.34938    0.80330    0.47801   1.00
H2       0.29214    0.79382    0.49733   1.00
H2       0.32218    0.73563    0.49510   1.00
H2       0.16342    0.52481    0.52153   1.00
H2       0.10735    0.55580    0.51706   1.00
H2       0.11056    0.49752    0.49986   1.00
H2       0.28798    0.61635    0.47971   1.00
H2       0.26619    0.55875    0.49996   1.00
H2       0.21593    0.53335    0.47777   1.00
H2       0.08045    0.64831    0.44679   1.00
H2       0.03576    0.55982    0.44159   1.00
H2       0.02907    0.58968    0.46548   1.00
H2       0.13311    0.54768    0.43226   1.00
H2       0.18487    0.63725    0.43323   1.00
H2       0.20910    0.58436    0.44624   1.00
C4       0.30854    0.14629    0.99930   1.00
C4       0.36293    0.17428    0.98486   1.00
C3       0.29735    0.18615    1.01376   1.00
C3       0.41509    0.24387    0.98464   1.00
C3       0.26308    0.07433    0.99965   1.00
C3       0.36584    0.13086    0.96968   1.00
C2       0.19941    0.08543    1.02866   1.00
C2       0.47209    0.22667    0.95544   1.00
C3       0.24455    0.15658    1.02811   1.00
C3       0.46782    0.26951    0.97022   1.00
C3       0.20934    0.04562    1.01401   1.00
C3       0.42102    0.15708    0.95584   1.00
H1       0.32709    0.23786    1.01424   1.00
H1       0.41654    0.27788    0.99502   1.00
C5       0.27141    0.03156    0.98561   1.00
C5       0.31412    0.06142    0.96849   1.00
H1       0.23924    0.18792    1.03829   1.00
H1       0.50381    0.32040    0.97068   1.00
H1       0.17600    -0.00585   1.01371   1.00
H1       0.42474    0.12442    0.94590   1.00
O3       0.23504    -0.03817   0.98813   1.00
O3       0.30841    0.02222    0.95173   1.00
Si1      0.26877    -0.07632   1.00060   1.00
Si1      0.26618    0.02474    0.93201   1.00
C6       0.19515    -0.15791   1.00150   1.00
C6       0.33202    -0.07619   0.98498   1.00
C6       0.29631    -0.04302   1.02520   1.00
C6       0.23218    0.08002    0.93273   1.00
C6       0.32622    0.04971    0.91233   1.00
C6       0.20098    -0.05946   0.92715   1.00
C6       0.12766    -0.15992   1.00812   1.00
H2       0.18781    -0.17293   0.98555   1.00
C6       0.19528    -0.21825   1.01319   1.00
H2       0.31439    -0.07262   0.96987   1.00
C6       0.40660    -0.01486   0.98666   1.00
C6       0.33944    -0.14129   0.98454   1.00
H2       0.25237    -0.04069   1.03107   1.00
C6       0.30958    -0.08791   1.04057   1.00
C6       0.35983    0.03039    1.02782   1.00
C6       0.18213    0.07095    0.95036   1.00
C6       0.28099    0.15871    0.93022   1.00
H2       0.20118    0.06574    0.91899   1.00
H2       0.36288    0.10282    0.91583   1.00
C6       0.36887    0.01262    0.91147   1.00
C6       0.30053    0.04890    0.89026   1.00
H2       0.22666    -0.08200   0.91889   1.00
C6       0.16884    -0.10620   0.94604   1.00
C6       0.13983    -0.07025   0.91346   1.00
H2       0.11686    -0.12705   0.99856   1.00
H2       0.13060    -0.14336   1.02384   1.00
H2       0.08378    -0.21139   1.00678   1.00
H2       0.16189    -0.26654   1.00553   1.00
H2       0.24563    -0.21293   1.01414   1.00
H2       0.17601    -0.22352   1.02866   1.00
H2       0.43690    -0.01332   0.97354   1.00
H2       0.40820    0.03397    0.98697   1.00
H2       0.43197    -0.01904   1.00021   1.00
H2       0.29147    -0.18662   0.98046   1.00
H2       0.37667    -0.13669   0.97315   1.00
H2       0.35649    -0.14967   0.99920   1.00
H2       0.34494    -0.10267   1.03428   1.00
H2       0.33095    -0.06129   1.05490   1.00
H2       0.26243    -0.13360   1.04470   1.00
H2       0.40767    0.02968    1.02806   1.00
H2       0.36438    0.06561    1.01599   1.00
H2       0.35636    0.05256    1.04220   1.00
H2       0.20937    0.09713    0.96410   1.00
H2       0.15011    0.09248    0.94611   1.00
H2       0.14799    0.01755    0.95406   1.00
H2       0.25164    0.18466    0.92812   1.00
H2       0.31323    0.18151    0.94345   1.00
H2       0.31374    0.17097    0.91693   1.00
H2       0.41210    0.03924    0.90112   1.00
H2       0.39001    0.01203    0.92632   1.00
H2       0.33849    -0.03993   0.90622   1.00
H2       0.27174    0.07564    0.88928   1.00
H2       0.34375    0.07464    0.87986   1.00
H2       0.26844    -0.00314   0.88475   1.00
H2       0.14352    -0.08744   0.95605   1.00
H2       0.13182    -0.15843   0.94166   1.00
H2       0.20834    -0.10852   0.95473   1.00
H2       0.10871    -0.12380   0.90906   1.00
H2       0.10667    -0.05564   0.92137   1.00
H2       0.15726    -0.04087   0.89945   1.00
C4       0.82859    0.69146    0.99920   1.00
C4       0.80436    0.63830    0.98437   1.00
C3       0.81493    0.74617    0.99849   1.00
C3       0.76944    0.63787    0.96643   1.00
C3       0.86970    0.69097    1.01554   1.00
C3       0.81518    0.58204    0.98750   1.00
C2       0.88228    0.79883    1.02920   1.00
C2       0.75832    0.52967    0.95490   1.00
C3       0.84133    0.79860    1.01301   1.00
C3       0.74647    0.58476    0.95219   1.00
C3       0.89478    0.74365    1.03024   1.00
C3       0.79422    0.53053    0.97255   1.00
H1       0.78521    0.74941    0.98746   1.00
H1       0.76002    0.67633    0.96312   1.00
C5       0.88525    0.63771    1.01713   1.00
C5       0.84736    0.57771    1.00543   1.00
H1       0.83015    0.83712    1.01164   1.00
H1       0.72098    0.58686    0.93958   1.00
H1       0.92262    0.74162    1.04219   1.00
H1       0.80620    0.49290    0.97439   1.00
O3       0.93380    0.64329    1.03081   1.00
O3       0.84628    0.51805    1.01065   1.00
Si1      1.01285    0.67488    1.02352   1.00
Si1      0.78050    0.45935    1.02295   1.00
C6       1.04808    0.67945    1.04775   1.00
C6       1.01674    0.61300    1.00825   1.00
C6       1.04740    0.75649    1.01242   1.00
C6       0.71221    0.47381    1.02823   1.00
C6       0.75165    0.38752    1.00724   1.00
C6       0.81123    0.44312    1.04558   1.00
C6       1.02537    0.71178    1.06492   1.00
H2       1.02556    0.62569    1.05181   1.00
C6       1.12701    0.71098    1.05066   1.00
H2       0.97310    0.56591    1.01374   1.00
C6       1.00579    0.61438    0.98486   1.00
C6       1.07966    0.60244    1.01048   1.00
H2       1.03244    0.78318    1.02324   1.00
C6       1.12696    0.80007    1.01065   1.00
C6       1.02107    0.76418    0.99106   1.00
C6       0.72797    0.53921    1.04048   1.00
C6       0.66246    0.46742    1.01075   1.00
H2       0.68018    0.43119    1.03822   1.00
H2       0.73061    0.39987    0.99409   1.00
C6       0.80783    0.37343    0.99857   1.00
C6       0.69347    0.31801    1.01562   1.00
H2       0.82964    0.40886    1.04096   1.00
C6       0.87409    0.50531    1.05548   1.00
C6       0.75919    0.40582    1.06318   1.00
H2       0.96991    0.68567    1.06636   1.00
H2       1.04355    0.76566    1.06193   1.00
H2       1.04519    0.70794    1.07968   1.00
H2       1.13707    0.68483    1.06297   1.00
H2       1.15232    0.70691    1.03717   1.00
H2       1.15222    0.76484    1.05484   1.00
H2       0.99495    0.56616    0.97788   1.00
H2       0.96259    0.62112    0.98133   1.00
H2       1.05119    0.65498    0.97752   1.00
H2       1.08604    0.59085    1.02612   1.00
H2       1.07338    0.55928    1.00137   1.00
H2       1.12648    0.64755    1.00548   1.00
H2       1.14766    0.77180    1.00287   1.00
H2       1.14346    0.84764    1.00234   1.00
H2       1.15069    0.81564    1.02549   1.00
H2       1.04907    0.75741    0.97866   1.00
H2       0.96750    0.72839    0.98854   1.00
H2       1.02781    0.81528    0.98948   1.00
H2       0.74697    0.58384    1.03072   1.00
H2       0.68169    0.53270    1.04776   1.00
H2       0.76519    0.55036    1.05246   1.00
H2       0.61797    0.46818    1.01689   1.00
H2       0.68634    0.50917    0.99994   1.00
H2       0.64281    0.41955    1.00246   1.00
H2       0.78684    0.33547    0.98643   1.00
H2       0.85019    0.41948    0.99200   1.00
H2       0.82835    0.35433    1.01019   1.00
H2       0.65083    0.32251    1.02149   1.00
H2       0.67318    0.27976    1.00354   1.00
H2       0.71201    0.29833    1.02767   1.00
H2       0.86289    0.54489    1.06012   1.00
H2       0.89235    0.49019    1.06873   1.00
H2       0.91592    0.52775    1.04471   1.00
H2       0.78190    0.38953    1.07499   1.00
H2       0.74313    0.43912    1.07028   1.00
H2       0.71382    0.36008    1.05785   1.00
C4       0.86248    0.17183    0.99946   1.00
C4       0.83379    0.19617    0.98459   1.00
C3       0.93343    0.19590    1.00122   1.00
C3       0.87239    0.24233    0.96887   1.00
C3       0.81813    0.11977    1.01322   1.00
C3       0.76262    0.17362    0.98534   1.00
C2       0.91618    0.11760    1.02929   1.00
C2       0.77172    0.24180    0.95481   1.00
C3       0.95955    0.16929    1.01564   1.00
C3       0.84237    0.26504    0.95450   1.00
C3       0.84561    0.09450    1.02791   1.00
C3       0.73285    0.19484    0.97020   1.00
H1       0.96822    0.23363    0.99212   1.00
H1       0.92336    0.26048    0.96732   1.00
C5       0.74667    0.09348    1.01228   1.00
C5       0.72138    0.12959    1.00105   1.00
H1       1.01127    0.18834    1.01611   1.00
H1       0.87290    0.29888    0.94358   1.00
H1       0.81336    0.05851    1.03804   1.00
H1       0.68116    0.17485    0.97019   1.00
O3       0.70340    0.03590    1.02318   1.00
O3       0.65619    0.11803    1.00444   1.00
Si1      0.67030    -0.03901   1.01246   1.00
Si1      0.64626    0.17173    1.01851   1.00
C6       0.63304    -0.08799   1.03449   1.00
C6       0.60755    -0.04576   0.99529   1.00
C6       0.73192    -0.05629   1.00204   1.00
C6       0.71994    0.24397    1.02804   1.00
C6       0.60209    0.19827    1.00246   1.00
C6       0.59145    0.12482    1.03859   1.00
C6       0.68006    -0.06719   1.05371   1.00
H2       0.59371    -0.07520   1.03813   1.00
C6       0.59542    -0.16798   1.03384   1.00
H2       0.59345    -0.01015   1.00174   1.00
C6       0.62925    -0.02198   0.97289   1.00
C6       0.53941    -0.11548   0.99358   1.00
H2       0.76888    -0.04143   1.01439   1.00
C6       0.70871    -0.13254   0.99712   1.00
C6       0.77310    -0.01615   0.98272   1.00
C6       0.77038    0.23199    1.04124   1.00
C6       0.76511    0.30463    1.01344   1.00
H2       0.69829    0.26572    1.03841   1.00
H2       0.63988    0.22940    0.99106   1.00
C6       0.54107    0.14068    0.99028   1.00
C6       0.57561    0.24408    1.01191   1.00
H2       0.54056    0.10187    1.03193   1.00
C6       0.59773    0.06350    1.04667   1.00
C6       0.58983    0.16483    1.05776   1.00
H2       0.70069    -0.01344   1.05748   1.00
H2       0.72290    -0.07590   1.05137   1.00
H2       0.65172    -0.09641   1.06702   1.00
H2       0.55300    -0.18933   1.04460   1.00
H2       0.57466    -0.18866   1.01897   1.00
H2       0.62877    -0.18781   1.03818   1.00
H2       0.59045    -0.01501   0.96514   1.00
H2       0.67638    0.02683    0.97207   1.00
H2       0.63568    -0.05960   0.96430   1.00
H2       0.51434    -0.13217   1.00829   1.00
H2       0.50292    -0.11143   0.98363   1.00
H2       0.54836    -0.15505   0.98737   1.00
H2       0.66362    -0.15530   0.98740   1.00
H2       0.74869    -0.13780   0.98944   1.00
H2       0.69765    -0.16267   1.01087   1.00
H2       0.74659    -0.04070   0.96869   1.00
H2       0.78351    0.03599    0.98218   1.00
H2       0.82249    -0.01390   0.98234   1.00
H2       0.80565    0.22431    1.03189   1.00
H2       0.80122    0.27633    1.05084   1.00
H2       0.74390    0.18825    1.05127   1.00
H2       0.80265    0.34887    1.02205   1.00
H2       0.79342    0.29181    1.00270   1.00
H2       0.73508    0.32166    1.00492   1.00
H2       0.52456    0.16277    0.97834   1.00
H2       0.55568    0.10680    0.98281   1.00
H2       0.49722    0.10976    0.99999   1.00
H2       0.61563    0.28712    1.02025   1.00
H2       0.55814    0.26535    0.99997   1.00
H2       0.53270    0.21494    1.02213   1.00
H2       0.64791    0.07969    1.05310   1.00
H2       0.55940    0.03480    1.05824   1.00
H2       0.58946    0.02836    1.03436   1.00
H2       0.54695    0.13195    1.06761   1.00
H2       0.63650    0.18386    1.06669   1.00
H2       0.58357    0.20802    1.05368   1.00
C4       0.52215    1.02091    0.83385   1.00
C4       0.49352    0.96790    0.81897   1.00
C3       0.48720    1.02130    0.85168   1.00
C3       0.42503    0.91333    0.81951   1.00
C3       0.58906    1.07746    0.83073   1.00
C3       0.53520    0.96882    0.80260   1.00
C2       0.58227    1.13166    0.86270   1.00
C2       0.43897    0.86350    0.78806   1.00
C3       0.51622    1.07530    0.86566   1.00
C3       0.39866    0.86220    0.80458   1.00
C3       0.61794    1.13082    0.84520   1.00
C3       0.50681    0.91844    0.78725   1.00
H1       0.43972    0.98224    0.85508   1.00
H1       0.39217    0.90935    0.83068   1.00
C5       0.62679    1.08021    0.81321   1.00
C5       0.60477    1.02026    0.80149   1.00
H1       0.48833    1.07303    0.87821   1.00
H1       0.34893    0.82366    0.80584   1.00
H1       0.66670    1.17012    0.84304   1.00
H1       0.53604    0.92226    0.77496   1.00
O3       0.68608    1.13955    0.80855   1.00
O3       0.64910    1.01470    0.78826   1.00
Si1      0.68375    1.19487    0.79316   1.00
Si1      0.68546    0.97140    0.79530   1.00
C6       0.76903    1.26039    0.79660   1.00
C6       0.67046    1.16058    0.76848   1.00
C6       0.62591    1.22133    0.80087   1.00
C6       0.66397    0.93106    0.81928   1.00
C6       0.66134    0.90948    0.77621   1.00
C6       0.77424    1.02653    0.79359   1.00
C6       0.79417    1.27700    0.81913   1.00
H2       0.79754    1.23804    0.78993   1.00
C6       0.79696    1.33153    0.78599   1.00
H2       0.69066    1.12592    0.76973   1.00
C6       0.59546    1.11605    0.76075   1.00
C6       0.70998    1.20943    0.75044   1.00
H2       0.63839    1.23269    0.81693   1.00
C6       0.63434    1.28826    0.79115   1.00
C6       0.54709    1.16970    0.79976   1.00
C6       0.67524    0.97628    0.83842   1.00
C6       0.59326    0.86470    0.82226   1.00
H2       0.70047    0.91319    0.82082   1.00
H2       0.60693    0.87567    0.77881   1.00
C6       0.66724    0.93544    0.75387   1.00
C6       0.69474    0.86349    0.77657   1.00
H2       0.78542    1.02583    0.77751   1.00
C6       0.80080    1.10304    0.79859   1.00
C6       0.82191    1.00654    0.80528   1.00
H2       0.78684    1.23161    0.82715   1.00
H2       0.76684    1.29774    0.82744   1.00
H2       0.84865    1.31424    0.81987   1.00
H2       0.85080    1.35272    0.78215   1.00
H2       0.77003    1.32874    0.77206   1.00
H2       0.79406    1.36879    0.79583   1.00
H2       0.59359    1.08650    0.74740   1.00
H2       0.56263    1.07927    0.77207   1.00
H2       0.57371    1.14774    0.75645   1.00
H2       0.76495    1.23618    0.75299   1.00
H2       0.70133    1.18111    0.73626   1.00
H2       0.69361    1.24683    0.74807   1.00
H2       0.63421    1.28566    0.77460   1.00
H2       0.59355    1.29805    0.79572   1.00
H2       0.68123    1.33277    0.79611   1.00
H2       0.52589    1.17006    0.78492   1.00
H2       0.53355    1.11744    0.80286   1.00
H2       0.52028    1.18338    0.81095   1.00
H2       0.63268    0.98506    0.84088   1.00
H2       0.67967    0.95119    0.85203   1.00
H2       0.72174    1.02559    0.83737   1.00
H2       0.59153    0.84075    0.83683   1.00
H2       0.55116    0.87491    0.82220   1.00
H2       0.58347    0.82652    0.81067   1.00
H2       0.64055    0.89236    0.74348   1.00
H2       0.64378    0.96721    0.75218   1.00
H2       0.72017    0.96499    0.74889   1.00
H2       0.69116    0.84133    0.79153   1.00
H2       0.66867    0.82098    0.76594   1.00
H2       0.74837    0.89209    0.77214   1.00
H2       0.79023    1.11036    0.81424   1.00
H2       0.85565    1.13430    0.79602   1.00
H2       0.77621    1.12274    0.78876   1.00
H2       0.87500    1.03866    0.80057   1.00
H2       0.81959    1.01267    0.82165   1.00
H2       0.80851    0.95395    0.80228   1.00
C4       -0.02108   0.50043    0.83380   1.00
C4       0.03186    0.52492    0.81890   1.00
C3       -0.02651   0.45690    0.85007   1.00
C3       0.08090    0.50343    0.81770   1.00
C3       -0.07233   0.51937    0.83233   1.00
C3       0.03670    0.57377    0.80433   1.00
C2       -0.13157   0.45037    0.86273   1.00
C2       0.13641    0.57569    0.78803   1.00
C3       -0.08042   0.43222    0.86408   1.00
C3       0.13214    0.52857    0.80281   1.00
C3       -0.12559   0.49496    0.84683   1.00
C3       0.08691    0.59625    0.78892   1.00
H1       0.00867    0.44203    0.85226   1.00
H1       0.08059    0.46856    0.82752   1.00
C5       -0.06988   0.56279    0.81643   1.00
C5       -0.00887   0.59952    0.80507   1.00
H1       -0.08196   0.40048    0.87544   1.00
H1       0.16658    0.51165    0.80278   1.00
H1       -0.16092   0.51049    0.84591   1.00
H1       0.08698    0.62786    0.77784   1.00
O3       -0.12497   0.57171    0.81306   1.00
O3       0.00304    0.65601    0.79386   1.00
Si1      -0.18320   0.52357    0.79660   1.00
Si1      0.05313    0.73178    0.80319   1.00
C6       -0.24183   0.55109    0.80222   1.00
C6       -0.14776   0.55037    0.77223   1.00
C6       -0.21870   0.43551    0.80137   1.00
C6       0.09223    0.73791    0.82691   1.00
C6       0.11620    0.77079    0.78446   1.00
C6       0.00609    0.77448    0.80404   1.00
C6       -0.25701   0.55389    0.82529   1.00
H2       -0.21440   0.60416    0.79721   1.00
C6       -0.31314   0.51831    0.79143   1.00
H2       -0.10864   0.60325    0.77497   1.00
C6       -0.10987   0.51573    0.76236   1.00
C6       -0.19379   0.55313    0.75497   1.00
H2       -0.22969   0.43225    0.81760   1.00
C6       -0.28804   0.38584    0.79074   1.00
C6       -0.17401   0.40105    0.79805   1.00
C6       0.04518    0.70085    0.84548   1.00
C6       0.15337    0.72412    0.82828   1.00
H2       0.11565    0.79223    0.83029   1.00
H2       0.14500    0.74408    0.78548   1.00
C6       0.09029    0.76104    0.76202   1.00
C6       0.16900    0.84837    0.78709   1.00
H2       0.00879    0.79270    0.78855   1.00
C6       -0.07160   0.72961    0.80860   1.00
C6       0.03280    0.83881    0.81800   1.00
H2       -0.21024   0.58537    0.83384   1.00
H2       -0.28267   0.50295    0.83202   1.00
H2       -0.28955   0.57629    0.82753   1.00
H2       -0.32863   0.55658    0.78940   1.00
H2       -0.31309   0.49768    0.77655   1.00
H2       -0.35323   0.47714    0.80035   1.00
H2       -0.07840   0.54602    0.74961   1.00
H2       -0.07552   0.51125    0.77298   1.00
H2       -0.14594   0.46508    0.75657   1.00
H2       -0.21525   0.58509    0.75923   1.00
H2       -0.16445   0.57545    0.74110   1.00
H2       -0.23530   0.50213    0.75121   1.00
H2       -0.28474   0.39412    0.77436   1.00
H2       -0.30368   0.33229    0.79342   1.00
H2       -0.32935   0.39200    0.79671   1.00
H2       -0.17654   0.38384    0.78245   1.00
H2       -0.12059   0.43416    0.80160   1.00
H2       -0.19223   0.35615    0.80779   1.00
H2       0.03046    0.64714    0.84602   1.00
H2       0.07178    0.72381    0.85968   1.00
H2       -0.00104   0.70434    0.84538   1.00
H2       0.17794    0.73921    0.84315   1.00
H2       0.13727    0.67047    0.82630   1.00
H2       0.19289    0.75345    0.81712   1.00
H2       0.13282    0.77674    0.75145   1.00
H2       0.05381    0.70757    0.75875   1.00
H2       0.06588    0.79102    0.75866   1.00
H2       0.19145    0.85973    0.80224   1.00
H2       0.21102    0.86428    0.77631   1.00
H2       0.14567    0.87975    0.78433   1.00
H2       -0.08122   0.70604    0.82355   1.00
H2       -0.09766   0.75914    0.80767   1.00
H2       -0.09518   0.68910    0.79744   1.00
H2       0.00569    0.86647    0.81486   1.00
H2       0.02547    0.82474    0.83403   1.00
H2       0.08681    0.87459    0.81550   1.00
C4       0.49955    0.47847    0.83380   1.00
C4       0.47507    0.50692    0.81890   1.00
C3       0.54293    0.51652    0.85011   1.00
C3       0.49641    0.57743    0.81774   1.00
C3       0.48078    0.40834    0.83230   1.00
C3       0.42637    0.46294    0.80429   1.00
C2       0.54962    0.41804    0.86273   1.00
C2       0.42432    0.56072    0.78803   1.00
C3       0.56761    0.48729    0.86411   1.00
C3       0.47128    0.60353    0.80285   1.00
C3       0.50519    0.37948    0.84680   1.00
C3       0.40390    0.49068    0.78889   1.00
H1       0.55767    0.56654    0.85232   1.00
H1       0.53116    0.61195    0.82759   1.00
C5       0.43753    0.36741    0.81636   1.00
C5       0.40077    0.39164    0.80500   1.00
H1       0.59923    0.51745    0.87550   1.00
H1       0.48809    0.65487    0.80285   1.00
H1       0.48978    0.32865    0.84585   1.00
H1       0.37241    0.45917    0.77778   1.00
O3       0.42878    0.30348    0.81296   1.00
O3       0.34440    0.34705    0.79374   1.00
Si1      0.47713    0.29365    0.79652   1.00
Si1      0.26853    0.32116    0.80303   1.00
C6       0.44975    0.20749    0.80209   1.00
C6       0.45044    0.30237    0.77214   1.00
C6       0.56513    0.34633    0.80135   1.00
C6       0.26214    0.35389    0.82676   1.00
C6       0.22954    0.34520    0.78429   1.00
C6       0.22600    0.23141    0.80382   1.00
C6       0.44683    0.18937    0.82516   1.00
H2       0.39672    0.18179    0.79704   1.00
C6       0.48275    0.16917    0.79130   1.00
H2       0.39751    0.28847    0.77486   1.00
C6       0.48501    0.37496    0.76231   1.00
C6       0.44793    0.25376    0.75486   1.00
H2       0.56830    0.33850    0.81758   1.00
C6       0.61499    0.32688    0.79073   1.00
C6       0.59946    0.42549    0.79808   1.00
C6       0.29914    0.34389    0.84534   1.00
C6       0.27575    0.42875    0.82816   1.00
H2       0.20781    0.32288    0.83010   1.00
H2       0.25614    0.40071    0.78534   1.00
C6       0.23951    0.32925    0.76185   1.00
C6       0.15191    0.32024    0.78688   1.00
H2       0.20791    0.21597    0.78832   1.00
C6       0.27098    0.19871    0.80839   1.00
C6       0.16159    0.19358    0.81774   1.00
H2       0.41521    0.20450    0.83370   1.00
H2       0.49772    0.21471    0.83191   1.00
H2       0.42452    0.13443    0.82736   1.00
H2       0.44458    0.11540    0.78924   1.00
H2       0.50346    0.18998    0.77644   1.00
H2       0.52391    0.17030    0.80024   1.00
H2       0.45477    0.37615    0.74955   1.00
H2       0.48932    0.41368    0.77295   1.00
H2       0.53573    0.38969    0.75656   1.00
H2       0.41603    0.20029    0.75909   1.00
H2       0.42566    0.26080    0.74098   1.00
H2       0.49900    0.26340    0.75113   1.00
H2       0.60683    0.32201    0.77435   1.00
H2       0.66850    0.36487    0.79345   1.00
H2       0.60890    0.27942    0.79668   1.00
H2       0.61676    0.44030    0.78248   1.00
H2       0.56623    0.44566    0.80162   1.00
H2       0.64427    0.45218    0.80785   1.00
H2       0.35282    0.38296    0.84592   1.00
H2       0.27603    0.34736    0.85953   1.00
H2       0.29577    0.29423    0.84522   1.00
H2       0.26051    0.43809    0.84303   1.00
H2       0.32938    0.46641    0.82622   1.00
H2       0.24643    0.43893    0.81700   1.00
H2       0.22380    0.35608    0.75128   1.00
H2       0.29302    0.34638    0.75861   1.00
H2       0.20966    0.27488    0.75845   1.00
H2       0.14040    0.33119    0.80202   1.00
H2       0.13599    0.34635    0.77610   1.00
H2       0.12065    0.26553    0.78408   1.00
H2       0.29444    0.21261    0.82336   1.00
H2       0.24156    0.14313    0.80743   1.00
H2       0.31158    0.21580    0.79725   1.00
H2       0.13406    0.13883    0.81457   1.00
H2       0.17554    0.20023    0.83378   1.00
H2       0.12573    0.21170    0.81523   1.00
C4       0.35915    0.19634    0.33446   1.00
C4       0.30463    0.16722    0.34885   1.00
C3       0.38174    0.26027    0.32488   1.00
C3       0.26329    0.19607    0.35370   1.00
C3       0.39266    0.15943    0.32900   1.00
C3       0.29022    0.10593    0.35911   1.00
C2       0.46751    0.25016    0.30477   1.00
C2       0.19433    0.10440    0.37779   1.00
C3       0.43415    0.28630    0.31036   1.00
C3       0.21006    0.16590    0.36791   1.00
C3       0.44629    0.18717    0.31460   1.00
C3       0.23451    0.07479    0.37273   1.00
H1       0.36093    0.28991    0.32823   1.00
H1       0.27035    0.23960    0.34696   1.00
C5       0.37258    0.09522    0.33802   1.00
C5       0.33100    0.07565    0.35562   1.00
H1       0.44799    0.33259    0.30383   1.00
H1       0.18223    0.18936    0.37094   1.00
H1       0.47111    0.16100    0.31125   1.00
H1       0.22215    0.02868    0.37896   1.00
O3       0.39686    0.05483    0.33033   1.00
O3       0.32682    0.02474    0.36815   1.00
Si1      0.35257    -0.00312   0.31333   1.00
Si1      0.37167    0.04612    0.38899   1.00
C6       0.41475    -0.02582   0.30754   1.00
C6       0.28199    -0.07009   0.32582   1.00
C6       0.33232    0.02987    0.29185   1.00
C6       0.42136    0.13373    0.39498   1.00
C6       0.30980    0.00450    0.40788   1.00
C6       0.42350    0.00855    0.38813   1.00
C6       0.48870    0.03498    0.30368   1.00
H2       0.41787    -0.04921   0.32169   1.00
C6       0.40212    -0.07932   0.29050   1.00
H2       0.30063    -0.06446   0.34136   1.00
C6       0.21445    -0.06728   0.32716   1.00
C6       0.25917    -0.14527   0.31967   1.00
H2       0.38142    0.07462    0.28819   1.00
C6       0.30916    -0.01533   0.27225   1.00
C6       0.27967    0.05555    0.29389   1.00
C6       0.47569    0.18184    0.37919   1.00
C6       0.38550    0.17301    0.40303   1.00
H2       0.45072    0.13308    0.40802   1.00
H2       0.28203    0.03235    0.40820   1.00
C6       0.25474    -0.07142   0.40344   1.00
C6       0.33561    0.00634    0.43000   1.00
H2       0.38957    -0.04407   0.39286   1.00
C6       0.44990    0.00294    0.36678   1.00
C6       0.48661    0.03717    0.40266   1.00
H2       0.50699    0.07045    0.31646   1.00
H2       0.49071    0.06351    0.29008   1.00
H2       0.52494    0.01684    0.30175   1.00
H2       0.42700    -0.10848   0.29452   1.00
H2       0.34837    -0.11557   0.28810   1.00
H2       0.42347    -0.05516   0.27591   1.00
H2       0.18043    -0.10269   0.33868   1.00
H2       0.22373    -0.01699   0.33150   1.00
H2       0.18706    -0.08147   0.31274   1.00
H2       0.30100    -0.15585   0.32112   1.00
H2       0.21843    -0.18181   0.32956   1.00
H2       0.24004    -0.15585   0.30411   1.00
H2       0.26658    -0.06627   0.27545   1.00
H2       0.29315    0.00696    0.26022   1.00
H2       0.35079    -0.01989   0.26576   1.00
H2       0.22725    0.01448    0.29169   1.00
H2       0.28152    0.07854    0.30846   1.00
H2       0.28983    0.09427    0.28237   1.00
H2       0.45312    0.19819    0.36745   1.00
H2       0.51515    0.22796    0.38662   1.00
H2       0.50133    0.15777    0.37185   1.00
H2       0.42323    0.22338    0.40872   1.00
H2       0.35666    0.18113    0.39125   1.00
H2       0.35121    0.14667    0.41566   1.00
H2       0.21251    -0.08898   0.41422   1.00
H2       0.23292    -0.07711   0.38829   1.00
H2       0.27561    -0.10552   0.40462   1.00
H2       0.37301    0.05803    0.43467   1.00
H2       0.29317    -0.01220   0.44074   1.00
H2       0.35843    -0.02601   0.43155   1.00
H2       0.48275    0.05279    0.35999   1.00
H2       0.47817    -0.02445   0.36742   1.00
H2       0.40702    -0.02547   0.35665   1.00
H2       0.50814    0.00339    0.40296   1.00
H2       0.52690    0.08749    0.39780   1.00
H2       0.47285    0.04121    0.41823   1.00
C4       0.83286    0.63874    0.33511   1.00
C4       0.85922    0.69317    0.34953   1.00
C3       0.84094    0.58067    0.33685   1.00
C3       0.90148    0.69801    0.36611   1.00
C3       0.79724    0.64252    0.31774   1.00
C3       0.84263    0.74597    0.34748   1.00
C2       0.78099    0.53246    0.30476   1.00
C2       0.91175    0.80570    0.37780   1.00
C3       0.81608    0.52917    0.32205   1.00
C3       0.92651    0.75237    0.37997   1.00
C3       0.77144    0.58941    0.30317   1.00
C3       0.87076    0.80179    0.36110   1.00
H1       0.86492    0.57399    0.34896   1.00
H1       0.91566    0.66241    0.36853   1.00
C5       0.78737    0.69919    0.31509   1.00
C5       0.79861    0.74318    0.33176   1.00
H1       0.82388    0.48862    0.32404   1.00
H1       0.95637    0.75289    0.39176   1.00
H1       0.74435    0.59189    0.29109   1.00
H1       0.86196    0.84132    0.35866   1.00
O3       0.76332    0.70833    0.29684   1.00
O3       0.77121    0.78573    0.33185   1.00
Si1      0.81702    0.75648    0.27938   1.00
Si1      0.70168    0.76316    0.34478   1.00
C6       0.75681    0.73690    0.25981   1.00
C6       0.85224    0.84185    0.28737   1.00
C6       0.87717    0.73175    0.27284   1.00
C6       0.66629    0.68643    0.35882   1.00
C6       0.72560    0.83203    0.36140   1.00
C6       0.64079    0.76128    0.32776   1.00
C6       0.70411    0.65927    0.25670   1.00
H2       0.72704    0.75926    0.26551   1.00
C6       0.77991    0.76666    0.23788   1.00
H2       0.81254    0.83887    0.29741   1.00
C6       0.91900    0.87400    0.30035   1.00
C6       0.86411    0.89733    0.27120   1.00
H2       0.84494    0.67671    0.27081   1.00
C6       0.91677    0.75975    0.25239   1.00
C6       0.93401    0.74239    0.28850   1.00
C6       0.64720    0.61903    0.34718   1.00
C6       0.70119    0.68390    0.37907   1.00
H2       0.61775    0.68065    0.36385   1.00
H2       0.76048    0.82800    0.37197   1.00
C6       0.76724    0.90488    0.35183   1.00
C6       0.66819    0.83212    0.37456   1.00
H2       0.65412    0.81460    0.32647   1.00
C6       0.64356    0.73851    0.30563   1.00
C6       0.56393    0.72115    0.33419   1.00
H2       0.67669    0.63561    0.27071   1.00
H2       0.72931    0.63145    0.25161   1.00
H2       0.66562    0.65191    0.24542   1.00
H2       0.74132    0.77567    0.23089   1.00
H2       0.82782    0.81472    0.23773   1.00
H2       0.78589    0.73154    0.22789   1.00
H2       0.92719    0.92061    0.30783   1.00
H2       0.91675    0.83995    0.31235   1.00
H2       0.96360    0.88745    0.29092   1.00
H2       0.81712    0.88452    0.26313   1.00
H2       0.88112    0.94694    0.27831   1.00
H2       0.90300    0.90371    0.26022   1.00
H2       0.94146    0.81528    0.25171   1.00
H2       0.95615    0.74574    0.25029   1.00
H2       0.88305    0.73817    0.23942   1.00
H2       0.97904    0.79302    0.28730   1.00
H2       0.91724    0.73592    0.30414   1.00
H2       0.95070    0.70536    0.28572   1.00
H2       0.69120    0.61224    0.34521   1.00
H2       0.60903    0.57481    0.35565   1.00
H2       0.62561    0.61726    0.33229   1.00
H2       0.66839    0.63671    0.38733   1.00
H2       0.74936    0.68543    0.37645   1.00
H2       0.71046    0.72553    0.38929   1.00
H2       0.78951    0.94361    0.36374   1.00
H2       0.80956    0.90969    0.34262   1.00
H2       0.73549    0.91724    0.34231   1.00
H2       0.63755    0.78360    0.38236   1.00
H2       0.69046    0.87155    0.38627   1.00
H2       0.63440    0.84263    0.36536   1.00
H2       0.63354    0.68619    0.30494   1.00
H2       0.60692    0.74260    0.29580   1.00
H2       0.69378    0.77136    0.29924   1.00
H2       0.53286    0.73242    0.32394   1.00
H2       0.54376    0.66609    0.33384   1.00
H2       0.55636    0.73509    0.34939   1.00
C4       0.80565    0.16685    0.33509   1.00
C4       0.83380    0.14054    0.34951   1.00
C3       0.73826    0.15580    0.33630   1.00
C3       0.79551    0.09551    0.36549   1.00
C3       0.84636    0.20559    0.31829   1.00
C3       0.90415    0.16008    0.34808   1.00
C2       0.75136    0.21893    0.30477   1.00
C2       0.89408    0.08833    0.37779   1.00
C3       0.71169    0.18076    0.32151   1.00
C3       0.82493    0.07061    0.37936   1.00
C3       0.81904    0.23142    0.30373   1.00
C3       0.93207    0.13212    0.36167   1.00
H1       0.70658    0.12948    0.34800   1.00
H1       0.74503    0.07913    0.36745   1.00
C5       0.91418    0.21853    0.31619   1.00
C5       0.94615    0.20689    0.33299   1.00
H1       0.66243    0.17074    0.32310   1.00
H1       0.79492    0.03866    0.39071   1.00
H1       0.84946    0.26072    0.29207   1.00
H1       0.98133    0.14317    0.35965   1.00
O3       0.94917    0.24580    0.29838   1.00
O3       1.01633    0.23674    0.33378   1.00
Si1      0.94804    0.19535    0.28049   1.00
Si1      1.05959    0.30508    0.34755   1.00
C6       0.98915    0.25844    0.26168   1.00
C6       0.99990    0.16219    0.28856   1.00
C6       0.86487    0.13368    0.27290   1.00
C6       1.01407    0.33599    0.36155   1.00
C6       1.10459    0.28161    0.36430   1.00
C6       1.11913    0.36931    0.33143   1.00
C6       0.96166    0.30917    0.25878   1.00
H2       1.04035    0.28909    0.26796   1.00
C6       0.99962    0.23897    0.23964   1.00
H2       1.03441    0.20130    0.29916   1.00
C6       0.96602    0.09381    0.30079   1.00
C6       1.04692    0.15460    0.27263   1.00
H2       0.84035    0.16440    0.27095   1.00
C6       0.85727    0.09711    0.25209   1.00
C6       0.81839    0.07414    0.28780   1.00
C6       0.96526    0.35396    0.34973   1.00
C6       0.97501    0.29769    0.38125   1.00
H2       1.05494    0.38465    0.36724   1.00
H2       1.06516    0.24447    0.37433   1.00
C6       1.13950    0.24355    0.35466   1.00
C6       1.15912    0.33854    0.37829   1.00
H2       1.16073    0.35824    0.33032   1.00
C6       1.09582    0.36828    0.30912   1.00
C6       1.15238    0.44517    0.33869   1.00
H2       0.96258    0.33433    0.27301   1.00
H2       0.90927    0.28286    0.25313   1.00
H2       0.99306    0.34956    0.24802   1.00
H2       1.04732    0.27965    0.23329   1.00
H2       1.00197    0.19221    0.23913   1.00
H2       0.95911    0.23256    0.22932   1.00
H2       1.00475    0.08658    0.30848   1.00
H2       0.93202    0.09307    0.31257   1.00
H2       0.93738    0.05009    0.29081   1.00
H2       1.08066    0.20302    0.26516   1.00
H2       1.08014    0.13854    0.27984   1.00
H2       1.01679    0.11657    0.26114   1.00
H2       0.88997    0.07447    0.25145   1.00
H2       0.80478    0.05655    0.24931   1.00
H2       0.86970    0.13222    0.23947   1.00
H2       0.82630    0.03058    0.28629   1.00
H2       0.82628    0.08899    0.30362   1.00
H2       0.76461    0.05581    0.28450   1.00
H2       0.91563    0.30900    0.34706   1.00
H2       0.95634    0.38988    0.35843   1.00
H2       0.98631    0.37782    0.33515   1.00
H2       0.95783    0.32801    0.38966   1.00
H2       0.92988    0.24891    0.37795   1.00
H2       1.00725    0.28878    0.39163   1.00
H2       1.15589    0.22103    0.36650   1.00
H2       1.10422    0.20175    0.34487   1.00
H2       1.18424    0.27773    0.34570   1.00
H2       1.13854    0.36666    0.38618   1.00
H2       1.17626    0.31607    0.38995   1.00
H2       1.20395    0.37467    0.36967   1.00
H2       1.05224    0.37626    0.30820   1.00
H2       1.13692    0.40711    0.29986   1.00
H2       1.08112    0.31929    0.30223   1.00
H2       1.19544    0.47869    0.32898   1.00
H2       1.11587    0.46334    0.33824   1.00
H2       1.17218    0.45158    0.35409   1.00
C4       0.80762    0.64532    0.83299   1.00
C4       0.83529    0.69821    0.84792   1.00
C3       0.75384    0.63423    0.81963   1.00
C3       0.80791    0.74122    0.85222   1.00
C3       0.83411    0.60003    0.83140   1.00
C3       0.89371    0.70937    0.85924   1.00
C2       0.75218    0.53514    0.80390   1.00
C2       0.89326    0.80302    0.87866   1.00
C3       0.72659    0.58044    0.80556   1.00
C3       0.83645    0.79261    0.86703   1.00
C3       0.80678    0.54687    0.81685   1.00
C3       0.91990    0.75948    0.87470   1.00
H1       0.73304    0.66504    0.81968   1.00
H1       0.76618    0.73620    0.84481   1.00
C5       0.88791    0.60833    0.84430   1.00
C5       0.92536    0.67014    0.85524   1.00
H1       0.68738    0.57462    0.79640   1.00
H1       0.81487    0.82255    0.86937   1.00
H1       0.82756    0.51595    0.81550   1.00
H1       0.95899    0.76390    0.88355   1.00
O3       0.90552    0.55826    0.84509   1.00
O3       0.98900    0.68873    0.86303   1.00
Si1      0.87159    0.49857    0.86230   1.00
Si1      1.05660    0.74457    0.85075   1.00
C6       0.90386    0.44724    0.85294   1.00
C6       0.90906    0.53578    0.88577   1.00
C6       0.78156    0.45428    0.86205   1.00
C6       1.04502    0.78092    0.82844   1.00
C6       1.10034    0.80885    0.86885   1.00
C6       1.10598    0.70611    0.84550   1.00
C6       0.89552    0.43265    0.82956   1.00
H2       0.95863    0.47963    0.85541   1.00
C6       0.88422    0.37709    0.86313   1.00
H2       0.95788    0.57876    0.88104   1.00
C6       0.87421    0.56706    0.89903   1.00
C6       0.92704    0.49387    0.90091   1.00
H2       0.77029    0.44306    0.84593   1.00
C6       0.74405    0.38384    0.87324   1.00
C6       0.74240    0.49167    0.86911   1.00
C6       1.00152    0.73181    0.81093   1.00
C6       1.02277    0.83607    0.83014   1.00
H2       1.09681    0.80944    0.82244   1.00
H2       1.06865    0.83227    0.87059   1.00
C6       1.10590    0.78428    0.89061   1.00
C6       1.17329    0.86768    0.86313   1.00
H2       1.13334    0.71146    0.85963   1.00
C6       1.06587    0.62796    0.84117   1.00
C6       1.16182    0.73858    0.82858   1.00
H2       0.91794    0.47986    0.82078   1.00
H2       0.84179    0.40213    0.82533   1.00
H2       0.92133    0.40510    0.82477   1.00
H2       0.92694    0.36756    0.86210   1.00
H2       0.87118    0.37506    0.87907   1.00
H2       0.84109    0.33428    0.85561   1.00
H2       0.90921    0.60061    0.91071   1.00
H2       0.85956    0.59810    0.89011   1.00
H2       0.82907    0.52730    0.90671   1.00
H2       0.96035    0.47776    0.89390   1.00
H2       0.95464    0.52448    0.91413   1.00
H2       0.88102    0.44894    0.90643   1.00
H2       0.76150    0.38852    0.88891   1.00
H2       0.68871    0.36245    0.87351   1.00
H2       0.75190    0.34593    0.86552   1.00
H2       0.73363    0.48769    0.88546   1.00
H2       0.76856    0.54545    0.86538   1.00
H2       0.69238    0.46872    0.86180   1.00
H2       0.94713    0.71133    0.81335   1.00
H2       1.01426    0.75897    0.79644   1.00
H2       1.01060    0.68921    0.80916   1.00
H2       1.02719    0.86033    0.81544   1.00
H2       0.97003    0.81441    0.83498   1.00
H2       1.05493    0.87695    0.84061   1.00
H2       1.12321    0.82622    0.90148   1.00
H2       1.05646    0.74371    0.89598   1.00
H2       1.14180    0.76544    0.89111   1.00
H2       1.17392    0.88948    0.84832   1.00
H2       1.19101    0.90918    0.87418   1.00
H2       1.21018    0.84999    0.86299   1.00
H2       1.03405    0.61553    0.82766   1.00
H2       1.10011    0.60745    0.83925   1.00
H2       1.03283    0.60131    0.85391   1.00
H2       1.19549    0.71692    0.82892   1.00
H2       1.13901    0.72942    0.81348   1.00
H2       1.19410    0.79345    0.83063   1.00
C4       0.35732    0.17064    0.83376   1.00
C4       0.30306    0.14413    0.84825   1.00
C3       0.36071    0.21108    0.81686   1.00
C3       0.24383    0.15015    0.84627   1.00
C3       0.41094    0.15531    0.83598   1.00
C3       0.30772    0.10972    0.86579   1.00
C2       0.46701    0.21948    0.80458   1.00
C2       0.19483    0.08778    0.87798   1.00
C3       0.41381    0.23452    0.80260   1.00
C3       0.19148    0.12332    0.86082   1.00
C3       0.46473    0.18051    0.82164   1.00
C3       0.25309    0.08053    0.87982   1.00
H1       0.32483    0.22489    0.81445   1.00
H1       0.23678    0.17382    0.83415   1.00
C5       0.41064    0.11515    0.85254   1.00
C5       0.36650    0.10404    0.86917   1.00
H1       0.41332    0.26316    0.79060   1.00
H1       0.15012    0.12972    0.85868   1.00
H1       0.50382    0.17069    0.82373   1.00
H1       0.25526    0.05232    0.89160   1.00
O3       0.45575    0.09105    0.85280   1.00
O3       0.37814    0.08334    0.88773   1.00
Si1      0.43244    0.01530    0.84381   1.00
Si1      0.41520    0.14002    0.90560   1.00
C6       0.51312    0.02128    0.84508   1.00
C6       0.37510    -0.04480   0.86135   1.00
C6       0.40240    0.00375    0.81859   1.00
C6       0.43606    0.22499    0.90059   1.00
C6       0.35626    0.10727    0.92561   1.00
C6       0.48862    0.13741    0.91298   1.00
C6       0.57438    0.08850    0.83638   1.00
H2       0.52198    0.02335    0.86141   1.00
C6       0.52395    -0.03785   0.83699   1.00
H2       0.38996    -0.01565   0.87545   1.00
C6       0.29720    -0.07095   0.85873   1.00
C6       0.37991    -0.11019   0.86575   1.00
H2       0.44167    0.04999    0.81118   1.00
C6       0.39877    -0.05747   0.80645   1.00
C6       0.33234    -0.00034   0.81399   1.00
C6       0.48314    0.26211    0.88203   1.00
C6       0.37817    0.24372    0.90023   1.00
H2       0.46613    0.25197    0.91390   1.00
H2       0.31398    0.11350    0.92039   1.00
C6       0.32440    0.02924    0.93003   1.00
C6       0.37897    0.14445    0.94655   1.00
H2       0.46928    0.09390    0.92328   1.00
C6       0.52627    0.12143    0.89593   1.00
C6       0.54521    0.19966    0.92502   1.00
H2       0.57805    0.13367    0.84357   1.00
H2       0.56921    0.09260    0.82004   1.00
H2       0.62293    0.09043    0.83915   1.00
H2       0.56234    -0.04133   0.84617   1.00
H2       0.47773    -0.08739   0.83746   1.00
H2       0.54262    -0.02923   0.82139   1.00
H2       0.26933    -0.09578   0.87261   1.00
H2       0.28715    -0.02956   0.85570   1.00
H2       0.27545    -0.10818   0.84647   1.00
H2       0.43098    -0.09715   0.87072   1.00
H2       0.34531    -0.14051   0.87797   1.00
H2       0.36642    -0.14276   0.85234   1.00
H2       0.36939    -0.10536   0.81469   1.00
H2       0.37520    -0.06349   0.79153   1.00
H2       0.44937    -0.04951   0.80338   1.00
H2       0.28942    -0.05221   0.81541   1.00
H2       0.32173    0.03160    0.82380   1.00
H2       0.33191    0.01621    0.79843   1.00
H2       0.45435    0.24970    0.86792   1.00
H2       0.50805    0.31742    0.88391   1.00
H2       0.52339    0.24955    0.88026   1.00
H2       0.39994    0.29908    0.89983   1.00
H2       0.34546    0.22322    0.88698   1.00
H2       0.34620    0.22587    0.91375   1.00
H2       0.28055    0.01153    0.94018   1.00
H2       0.30587    -0.00088   0.91613   1.00
H2       0.36090    0.01764    0.93716   1.00
H2       0.40013    0.19937    0.94502   1.00
H2       0.33526    0.12597    0.95680   1.00
H2       0.41690    0.13525    0.95387   1.00
H2       0.54600    0.16037    0.88413   1.00
H2       0.56870    0.11677    0.90196   1.00
H2       0.49135    0.07304    0.88883   1.00
H2       0.58256    0.18757    0.93136   1.00
H2       0.57267    0.24432    0.91527   1.00
H2       0.52398    0.21369    0.93775   1.00
C4       0.82905    0.18689    0.83394   1.00
C4       0.85549    0.15898    0.84839   1.00
C3       0.78145    0.14768    0.81859   1.00
C3       0.84183    0.09058    0.84781   1.00
C3       0.85190    0.25814    0.83451   1.00
C3       0.89789    0.20123    0.86443   1.00
C2       0.78059    0.24776    0.80464   1.00
C2       0.91215    0.10680    0.87792   1.00
C3       0.75816    0.17729    0.80427   1.00
C3       0.86884    0.06499    0.86227   1.00
C3       0.82682    0.28681    0.82016   1.00
C3       0.92695    0.17529    0.87834   1.00
H1       0.76213    0.09641    0.81742   1.00
H1       0.81220    0.05746    0.83679   1.00
C5       0.89944    0.30024    0.84947   1.00
C5       0.91162    0.26926    0.86643   1.00
H1       0.72412    0.14647    0.79343   1.00
H1       0.85674    0.01494    0.86119   1.00
H1       0.84222    0.33764    0.82111   1.00
H1       0.96066    0.20741    0.88894   1.00
O3       0.92985    0.37012    0.84794   1.00
O3       0.94080    0.30640    0.88388   1.00
Si1      1.00351    0.41344    0.83660   1.00
Si1      0.89163    0.29797    0.90306   1.00
C6       1.00681    0.49299    0.83652   1.00
C6       1.06579    0.41449    0.85289   1.00
C6       1.00378    0.38499    0.81169   1.00
C6       0.80337    0.23925    0.90088   1.00
C6       0.92592    0.27263    0.92286   1.00
C6       0.90514    0.37975    0.90887   1.00
C6       0.94047    0.49210    0.82922   1.00
H2       1.01110    0.50531    0.85266   1.00
C6       1.06723    0.55695    0.82604   1.00
H2       1.04166    0.40724    0.86771   1.00
C6       1.08348    0.35624    0.85081   1.00
C6       1.13625    0.48175    0.85470   1.00
H2       0.95735    0.38094    0.80530   1.00
C6       1.06340    0.43449    0.79738   1.00
C6       0.99860    0.31383    0.80832   1.00
C6       0.76364    0.24851    0.88291   1.00
C6       0.77709    0.16091    0.90235   1.00
H2       0.78298    0.24976    0.91454   1.00
H2       0.91287    0.22085    0.91873   1.00
C6       1.00547    0.31316    0.92493   1.00
C6       0.89657    0.26823    0.94463   1.00
H2       0.95193    0.40306    0.91784   1.00
C6       0.92044    0.42900    0.89058   1.00
C6       0.85039    0.38487    0.92208   1.00
H2       0.89600    0.45608    0.83800   1.00
H2       0.93014    0.47789    0.81323   1.00
H2       0.94486    0.54212    0.83109   1.00
H2       1.07827    0.60328    0.83428   1.00
H2       1.11402    0.55467    0.82554   1.00
H2       1.05511    0.56380    0.81049   1.00
H2       1.11094    0.35429    0.86421   1.00
H2       1.03799    0.30622    0.84955   1.00
H2       1.11589    0.36433    0.83765   1.00
H2       1.13005    0.52476    0.85914   1.00
H2       1.16816    0.47736    0.86638   1.00
H2       1.16435    0.49384    0.84041   1.00
H2       1.11296    0.45073    0.80433   1.00
H2       1.06206    0.41081    0.78278   1.00
H2       1.05977    0.47928    0.79364   1.00
H2       1.04851    0.31747    0.80861   1.00
H2       0.96724    0.27593    0.81948   1.00
H2       0.97602    0.29324    0.79348   1.00
H2       0.76866    0.22554    0.86898   1.00
H2       0.70919    0.22374    0.88638   1.00
H2       0.78076    0.30194    0.87990   1.00
H2       0.72147    0.13213    0.90362   1.00
H2       0.79043    0.14164    0.88905   1.00
H2       0.79667    0.14806    0.91574   1.00
H2       1.02244    0.28668    0.93520   1.00
H2       1.03027    0.31752    0.91034   1.00
H2       1.02413    0.36445    0.93087   1.00
H2       0.84096    0.23886    0.94477   1.00
H2       0.91438    0.24264    0.95498   1.00
H2       0.91294    0.31885    0.95082   1.00
H2       0.87796    0.40988    0.87994   1.00
H2       0.93212    0.47971    0.89558   1.00
H2       0.96476    0.43521    0.88239   1.00
H2       0.86940    0.43728    0.92719   1.00
H2       0.80350    0.36918    0.91353   1.00
H2       0.83756    0.35339    0.93567   1.00
C4       -0.02349   0.47120    0.33295   1.00
C4       0.02947    0.49973    0.31806   1.00
C3       -0.06508   0.40007    0.33639   1.00
C3       0.04200    0.45997    0.30390   1.00
C3       -0.03674   0.51577    0.34495   1.00
C3       0.07281    0.57197    0.31714   1.00
C2       -0.13179   0.41740    0.36266   1.00
C2       0.13663    0.56136    0.28810   1.00
C3       -0.11800   0.37385    0.35075   1.00
C3       0.09450    0.48986    0.28946   1.00
C3       -0.08953   0.48836    0.35962   1.00
C3       0.12352    0.60121    0.30191   1.00
H1       -0.05801   0.36523    0.32861   1.00
H1       0.01310    0.40817    0.30359   1.00
C5       0.00299    0.58743    0.34228   1.00
C5       0.06500    0.61474    0.33127   1.00
H1       -0.14673   0.32192    0.35247   1.00
H1       0.10156    0.45855    0.27972   1.00
H1       -0.09721   0.52101    0.36851   1.00
H1       0.15121    0.65313    0.30062   1.00
O3       -0.01699   0.62945    0.35135   1.00
O3       0.11417    0.68268    0.33327   1.00
Si1      -0.06416   0.65277    0.33882   1.00
Si1      0.17949    0.70301    0.34800   1.00
C6       -0.08108   0.69260    0.35923   1.00
C6       -0.01168   0.71288    0.32049   1.00
C6       -0.14003   0.58339    0.32927   1.00
C6       0.18567    0.63655    0.36005   1.00
C6       0.24938    0.74766    0.33170   1.00
C6       0.18133    0.76090    0.36619   1.00
C6       -0.10405   0.65111    0.37954   1.00
H2       -0.03071   0.73624    0.36235   1.00
C6       -0.12958   0.72296    0.35653   1.00
H2       0.03880    0.73342    0.32726   1.00
C6       -0.00655   0.68645    0.29900   1.00
C6       -0.02065   0.77603    0.31637   1.00
H2       -0.15958   0.54983    0.34247   1.00
C6       -0.19807   0.59785    0.32265   1.00
C6       -0.13617   0.53924    0.31147   1.00
C6       0.12524    0.58613    0.37388   1.00
C6       0.20720    0.59184    0.34737   1.00
H2       0.22860    0.66457    0.37035   1.00
H2       0.24677    0.70831    0.32158   1.00
C6       0.24672    0.80173    0.31750   1.00
C6       0.32213    0.78314    0.34140   1.00
H2       0.20535    0.80976    0.35826   1.00
C6       0.11083    0.74981    0.37330   1.00
C6       0.22432    0.77245    0.38592   1.00
H2       -0.06716   0.63653    0.38459   1.00
H2       -0.15346   0.60463    0.37784   1.00
H2       -0.10839   0.68132    0.39177   1.00
H2       -0.11234   0.76807    0.36611   1.00
H2       -0.13134   0.73820    0.34101   1.00
H2       -0.18192   0.68707    0.36111   1.00
H2       0.03751    0.72566    0.29071   1.00
H2       0.00031    0.64227    0.29987   1.00
H2       -0.05187   0.67312    0.28994   1.00
H2       -0.01496   0.80460    0.33027   1.00
H2       0.01823    0.81187    0.30589   1.00
H2       -0.07044   0.76052    0.30968   1.00
H2       -0.17924   0.63980    0.31178   1.00
H2       -0.24104   0.55323    0.31564   1.00
H2       -0.21965   0.60999    0.33562   1.00
H2       -0.13658   0.56030    0.29662   1.00
H2       -0.09122   0.53396    0.31202   1.00
H2       -0.18030   0.48766    0.31203   1.00
H2       0.08423    0.54571    0.36508   1.00
H2       0.14247    0.56147    0.38475   1.00
H2       0.10399    0.61186    0.38264   1.00
H2       0.21805    0.55987    0.35737   1.00
H2       0.16738    0.55773    0.33698   1.00
H2       0.25359    0.62276    0.33865   1.00
H2       0.28578    0.81809    0.30570   1.00
H2       0.19761    0.78056    0.30975   1.00
H2       0.25530    0.84698    0.32584   1.00
H2       0.32939    0.74836    0.35116   1.00
H2       0.36122    0.80041    0.32958   1.00
H2       0.33168    0.82774    0.35030   1.00
H2       0.08039    0.70087    0.38087   1.00
H2       0.11650    0.79005    0.38363   1.00
H2       0.08208    0.75110    0.36030   1.00
H2       0.22993    0.81650    0.39438   1.00
H2       0.20011    0.72821    0.39597   1.00
H2       0.27566    0.78263    0.38248   1.00
C4       0.49485    1.02401    0.33278   1.00
C4       0.47052    0.97098    0.31791   1.00
C3       0.47116    1.07122    0.33444   1.00
C3       0.42477    0.96372    0.30210   1.00
C3       0.54652    1.03138    0.34665   1.00
C3       0.49263    0.92203    0.31876   1.00
C2       0.54907    1.13192    0.36261   1.00
C2       0.42487    0.86324    0.28815   1.00
C3       0.49776    1.12393    0.34886   1.00
C3       0.40206    0.91098    0.28773   1.00
C3       0.57177    1.08412    0.36134   1.00
C3       0.47143    0.87103    0.30363   1.00
H1       0.43372    1.06855    0.32526   1.00
H1       0.40694    0.99678    0.30047   1.00
C5       0.57241    0.98586    0.34582   1.00
C5       0.53623    0.92452    0.33457   1.00
H1       0.47900    1.15686    0.34925   1.00
H1       0.36852    0.90790    0.27674   1.00
H1       0.60747    1.08761    0.37155   1.00
H1       0.49113    0.83907    0.30370   1.00
O3       0.62968    0.99982    0.35683   1.00
O3       0.54730    0.87061    0.33804   1.00
Si1      0.70482    1.04126    0.34624   1.00
Si1      0.49307    0.80713    0.35206   1.00
C6       0.75329    1.05267    0.36837   1.00
C6       0.71149    0.98502    0.32914   1.00
C6       0.72280    1.12031    0.33577   1.00
C6       0.42091    0.80907    0.36143   1.00
C6       0.46644    0.73637    0.33602   1.00
C6       0.53937    0.79886    0.37225   1.00
C6       0.73237    1.07911    0.38751   1.00
H2       0.74011    1.00045    0.37203   1.00
C6       0.83330    1.09462    0.36785   1.00
H2       0.67553    0.93538    0.33556   1.00
C6       0.68822    0.98312    0.30669   1.00
C6       0.78101    0.98613    0.32759   1.00
H2       0.70791    1.14259    0.34806   1.00
C6       0.79924    1.17301    0.33096   1.00
C6       0.68319    1.12166    0.31636   1.00
C6       0.43302    0.87162    0.37458   1.00
C6       0.36064    0.79396    0.34670   1.00
H2       0.39873    0.76567    0.37179   1.00
H2       0.43569    0.74328    0.32455   1.00
C6       0.52405    0.73254    0.32398   1.00
C6       0.42011    0.66415    0.34544   1.00
H2       0.56217    0.77066    0.36567   1.00
C6       0.60079    0.86627    0.38040   1.00
C6       0.49884    0.75736    0.39138   1.00
H2       0.67850    1.04625    0.39119   1.00
H2       0.74146    1.13077    0.38514   1.00
H2       0.76123    1.07978    0.40088   1.00
H2       0.85422    1.07332    0.37868   1.00
H2       0.85420    1.09441    0.35303   1.00
H2       0.85335    1.14784    0.37218   1.00
H2       0.68111    0.93725    0.29897   1.00
H2       0.63959    0.98178    0.30576   1.00
H2       0.72619    1.02707    0.29814   1.00
H2       0.79730    0.97760    0.34234   1.00
H2       0.77689    0.94548    0.31767   1.00
H2       0.82090    1.03454    0.32142   1.00
H2       0.82196    1.15045    0.32132   1.00
H2       0.80496    1.21838    0.32325   1.00
H2       0.82914    1.19193    0.34477   1.00
H2       0.70790    1.11953    0.30239   1.00
H2       0.63094    1.08014    0.31575   1.00
H2       0.68128    1.16897    0.31593   1.00
H2       0.44116    0.91466    0.36521   1.00
H2       0.38856    0.85838    0.38410   1.00
H2       0.47654    0.88863    0.38469   1.00
H2       0.31634    0.78754    0.35522   1.00
H2       0.37391    0.83515    0.33594   1.00
H2       0.34350    0.74686    0.33819   1.00
H2       0.50200    0.69396    0.31203   1.00
H2       0.55829    0.78096    0.31653   1.00
H2       0.55458    0.71934    0.33377   1.00
H2       0.37704    0.66141    0.35369   1.00
H2       0.39888    0.62543    0.33351   1.00
H2       0.44885    0.65012    0.35575   1.00
H2       0.58477    0.90049    0.38676   1.00
H2       0.62909    0.85638    0.39205   1.00
H2       0.63623    0.89299    0.36814   1.00
H2       0.53134    0.74708    0.40132   1.00
H2       0.47989    0.78522    0.40024   1.00
H2       0.45553    0.70803    0.38725   1.00
C4       0.52916    0.50516    0.33278   1.00
C4       0.50046    0.52949    0.31792   1.00
C3       0.60008    0.52907    0.33450   1.00
C3       0.53902    0.57549    0.30216   1.00
C3       0.48483    0.45325    0.34659   1.00
C3       0.42934    0.50711    0.31871   1.00
C2       0.58285    0.45093    0.36261   1.00
C2       0.43839    0.57513    0.28815   1.00
C3       0.62620    0.50247    0.34893   1.00
C3       0.50900    0.59820    0.28779   1.00
C3       0.51231    0.42799    0.36128   1.00
C3       0.39956    0.52833    0.30357   1.00
H1       0.63487    0.56669    0.32538   1.00
H1       0.58996    0.59352    0.30058   1.00
C5       0.41338    0.42712    0.34569   1.00
C5       0.38815    0.46325    0.33446   1.00
H1       0.67791    0.52141    0.34936   1.00
H1       0.53950    0.63193    0.27684   1.00
H1       0.48008    0.39211    0.37144   1.00
H1       0.34788    0.50845    0.30359   1.00
O3       0.37010    0.36966    0.35663   1.00
O3       0.32304    0.45189    0.33788   1.00
Si1      0.33677    0.29466    0.34597   1.00
Si1      0.31337    0.50579    0.35192   1.00
C6       0.29958    0.24587    0.36804   1.00
C6       0.27395    0.28794    0.32882   1.00
C6       0.39817    0.27710    0.33553   1.00
C6       0.38722    0.57800    0.36139   1.00
C6       0.26922    0.53237    0.33588   1.00
C6       0.25866    0.45912    0.37205   1.00
C6       0.34674    0.26672    0.38722   1.00
H2       0.26037    0.25882    0.37168   1.00
C6       0.26178    0.16587    0.36743   1.00
H2       0.26001    0.32369    0.33526   1.00
C6       0.29552    0.31152    0.30640   1.00
C6       0.20571    0.21829    0.32718   1.00
H2       0.43521    0.29197    0.34785   1.00
C6       0.37475    0.20078    0.33065   1.00
C6       0.43926    0.31703    0.31617   1.00
C6       0.43766    0.56597    0.37457   1.00
C6       0.43238    0.63851    0.34674   1.00
H2       0.36574    0.59992    0.37176   1.00
H2       0.30696    0.56335    0.32446   1.00
C6       0.20804    0.47477    0.32376   1.00
C6       0.24297    0.57838    0.34532   1.00
H2       0.20772    0.43623    0.36542   1.00
C6       0.26482    0.39776    0.38016   1.00
C6       0.25730    0.49934    0.39120   1.00
H2       0.36751    0.32052    0.39096   1.00
H2       0.38947    0.25786    0.38487   1.00
H2       0.31845    0.23764    0.40056   1.00
H2       0.21944    0.14469    0.37823   1.00
H2       0.24089    0.14511    0.35258   1.00
H2       0.29507    0.14596    0.37177   1.00
H2       0.25674    0.31854    0.29866   1.00
H2       0.34271    0.36026    0.30554   1.00
H2       0.30178    0.27376    0.29783   1.00
H2       0.18073    0.20176    0.34190   1.00
H2       0.16920    0.22237    0.31724   1.00
H2       0.21449    0.17860    0.32098   1.00
H2       0.32959    0.17803    0.32096   1.00
H2       0.41460    0.19533    0.32295   1.00
H2       0.36372    0.17074    0.34442   1.00
H2       0.41262    0.29242    0.30216   1.00
H2       0.44979    0.36922    0.31560   1.00
H2       0.48859    0.31915    0.31577   1.00
H2       0.47278    0.55811    0.36521   1.00
H2       0.46865    0.61036    0.38415   1.00
H2       0.41117    0.52232    0.38464   1.00
H2       0.47006    0.68277    0.35532   1.00
H2       0.46055    0.62552    0.33599   1.00
H2       0.40238    0.65558    0.33823   1.00
H2       0.19152    0.49685    0.31181   1.00
H2       0.22248    0.44075    0.31629   1.00
H2       0.16423    0.44400    0.33349   1.00
H2       0.28312    0.62143    0.35363   1.00
H2       0.22550    0.59964    0.33338   1.00
H2       0.20011    0.54940    0.35557   1.00
H2       0.31503    0.41388    0.38656   1.00
H2       0.22655    0.36922    0.39176   1.00
H2       0.25638    0.36250    0.36787   1.00
H2       0.21445    0.46661    0.40109   1.00
H2       0.30402    0.51834    0.40011   1.00
H2       0.25113    0.54258    0.38710   1.00
C4       0.18882    0.35424    0.16719   1.00
C4       0.16019    0.30124    0.15231   1.00
C3       0.15393    0.35456    0.18505   1.00
C3       0.09175    0.24658    0.15287   1.00
C3       0.25566    0.41088    0.16404   1.00
C3       0.20182    0.30225    0.13591   1.00
C2       0.24893    0.46500    0.19604   1.00
C2       0.10563    0.19684    0.12140   1.00
C3       0.18296    0.40856    0.19903   1.00
C3       0.06537    0.19545    0.13795   1.00
C3       0.28455    0.46424    0.17852   1.00
C3       0.17341    0.25186    0.12057   1.00
H1       0.10650    0.31544    0.18846   1.00
H1       0.05892    0.24253    0.16407   1.00
C5       0.29333    0.41371    0.14650   1.00
C5       0.27134    0.35378    0.13478   1.00
H1       0.15511    0.40623    0.21160   1.00
H1       0.01568    0.15684    0.13923   1.00
H1       0.33326    0.50361    0.17634   1.00
H1       0.20260    0.25575    0.10825   1.00
O3       0.35253    0.47312    0.14182   1.00
O3       0.31565    0.34832    0.12151   1.00
Si1      0.35000    0.52838    0.12646   1.00
Si1      0.35219    0.30514    0.12851   1.00
C6       0.43524    0.59400    0.12985   1.00
C6       0.33662    0.49410    0.10177   1.00
C6       0.29208    0.55468    0.13421   1.00
C6       0.33090    0.26479    0.15249   1.00
C6       0.32806    0.24325    0.10941   1.00
C6       0.44093    0.36040    0.12676   1.00
C6       0.46050    0.61065    0.15238   1.00
H2       0.46379    0.57174    0.12316   1.00
C6       0.46299    0.66513    0.11925   1.00
H2       0.35692    0.45952    0.10299   1.00
C6       0.26159    0.44946    0.09408   1.00
C6       0.37598    0.54298    0.08372   1.00
H2       0.30464    0.56605    0.15027   1.00
C6       0.30032    0.62156    0.12451   1.00
C6       0.21328    0.50294    0.13314   1.00
C6       0.34219    0.30999    0.17164   1.00
C6       0.26027    0.19835    0.15550   1.00
H2       0.36748    0.24702    0.15400   1.00
H2       0.27368    0.20936    0.11204   1.00
C6       0.33379    0.26919    0.08708   1.00
C6       0.36160    0.19737    0.10973   1.00
H2       0.45203    0.35973    0.11067   1.00
C6       0.46739    0.43689    0.13177   1.00
C6       0.48876    0.34053    0.13841   1.00
H2       0.45330    0.56528    0.16038   1.00
H2       0.43314    0.63131    0.16072   1.00
H2       0.51497    0.64796    0.15309   1.00
H2       0.51682    0.68641    0.11538   1.00
H2       0.43595    0.66229    0.10534   1.00
H2       0.46006    0.70235    0.12911   1.00
H2       0.25970    0.41993    0.08072   1.00
H2       0.22887    0.41265    0.10541   1.00
H2       0.23972    0.48107    0.08980   1.00
H2       0.43096    0.56982    0.08625   1.00
H2       0.36729    0.51467    0.06954   1.00
H2       0.35949    0.58031    0.08137   1.00
H2       0.30010    0.61897    0.10796   1.00
H2       0.25949    0.63125    0.12911   1.00
H2       0.34719    0.66612    0.12945   1.00
H2       0.19197    0.50326    0.11832   1.00
H2       0.19986    0.45071    0.13623   1.00
H2       0.18647    0.51655    0.14435   1.00
H2       0.29958    0.31867    0.17413   1.00
H2       0.34675    0.28493    0.18524   1.00
H2       0.38864    0.35934    0.17058   1.00
H2       0.25867    0.17443    0.17006   1.00
H2       0.21810    0.20847    0.15547   1.00
H2       0.25049    0.16020    0.14390   1.00
H2       0.30710    0.22611    0.07669   1.00
H2       0.31023    0.30088    0.08541   1.00
H2       0.38669    0.29882    0.08207   1.00
H2       0.35815    0.17522    0.12469   1.00
H2       0.33553    0.15485    0.09911   1.00
H2       0.41520    0.22606    0.10528   1.00
H2       0.45688    0.44417    0.14743   1.00
H2       0.52222    0.46823    0.12917   1.00
H2       0.44268    0.45652    0.12196   1.00
H2       0.54182    0.37274    0.13367   1.00
H2       0.48652    0.34665    0.15478   1.00
H2       0.47545    0.28797    0.13540   1.00
C4       0.63866    0.83209    0.16488   1.00
C4       0.69301    0.85854    0.15042   1.00
C3       0.57633    0.83157    0.16183   1.00
C3       0.69300    0.89265    0.13234   1.00
C3       0.64694    0.80548    0.18362   1.00
C3       0.75082    0.85062    0.15403   1.00
C2       0.53257    0.78080    0.19528   1.00
C2       0.80559    0.91194    0.12216   1.00
C3       0.52488    0.80701    0.17665   1.00
C3       0.74743    0.91806    0.11850   1.00
C3       0.59391    0.77976    0.19821   1.00
C3       0.80641    0.87916    0.14033   1.00
H1       0.56638    0.84882    0.14873   1.00
H1       0.65365    0.90042    0.12876   1.00
C5       0.70800    0.80448    0.18762   1.00
C5       0.75322    0.81485    0.17136   1.00
H1       0.48109    0.80838    0.17366   1.00
H1       0.74436    0.94176    0.10560   1.00
H1       0.59980    0.75910    0.21135   1.00
H1       0.84924    0.87688    0.14378   1.00
O3       0.72049    0.78955    0.20686   1.00
O3       0.80158    0.79490    0.17311   1.00
Si1      0.76453    0.85126    0.22286   1.00
Si1      0.78650    0.72334    0.16267   1.00
C6       0.75116    0.79967    0.24438   1.00
C6       0.85039    0.89203    0.21498   1.00
C6       0.73086    0.90596    0.22652   1.00
C6       0.70997    0.67608    0.14884   1.00
C6       0.85642    0.74863    0.14638   1.00
C6       0.79194    0.67252    0.18199   1.00
C6       0.67569    0.74208    0.24827   1.00
H2       0.77853    0.77306    0.24031   1.00
C6       0.77953    0.83224    0.26574   1.00
H2       0.85228    0.85153    0.20655   1.00
C6       0.87616    0.95350    0.19995   1.00
C6       0.90739    0.91554    0.23151   1.00
H2       0.67671    0.86981    0.22889   1.00
C6       0.75533    0.95306    0.24572   1.00
C6       0.73516    0.95461    0.20886   1.00
C6       0.64104    0.65376    0.16001   1.00
C6       0.70313    0.70120    0.12729   1.00
H2       0.70995    0.62874    0.14570   1.00
H2       0.84791    0.77682    0.13441   1.00
C6       0.92812    0.79968    0.15545   1.00
C6       0.86377    0.69110    0.13562   1.00
H2       0.84660    0.69209    0.18365   1.00
C6       0.76735    0.67965    0.20346   1.00
C6       0.75916    0.59413    0.17801   1.00
H2       0.65422    0.70896    0.23505   1.00
H2       0.64311    0.76356    0.25183   1.00
H2       0.67260    0.70935    0.26089   1.00
H2       0.79379    0.80005    0.27439   1.00
H2       0.82434    0.88275    0.26479   1.00
H2       0.74160    0.83668    0.27482   1.00
H2       0.92445    0.96449    0.19299   1.00
H2       0.84058    0.94303    0.18754   1.00
H2       0.88474    0.99966    0.20775   1.00
H2       0.89963    0.87317    0.24119   1.00
H2       0.95774    0.93520    0.22461   1.00
H2       0.90919    0.95604    0.24095   1.00
H2       0.81091    0.98321    0.24635   1.00
H2       0.73562    0.98842    0.24598   1.00
H2       0.73662    0.92350    0.25958   1.00
H2       0.78304    1.00312    0.20912   1.00
H2       0.73055    0.93299    0.19389   1.00
H2       0.69394    0.96627    0.21032   1.00
H2       0.62837    0.69425    0.16009   1.00
H2       0.59915    0.60995    0.15238   1.00
H2       0.64173    0.63858    0.17563   1.00
H2       0.65743    0.66205    0.11959   1.00
H2       0.69873    0.74684    0.12798   1.00
H2       0.74604    0.71163    0.11747   1.00
H2       0.96636    0.82119    0.14340   1.00
H2       0.92785    0.84254    0.16298   1.00
H2       0.94503    0.77510    0.16640   1.00
H2       0.81639    0.65394    0.12828   1.00
H2       0.90276    0.71277    0.12377   1.00
H2       0.87900    0.66428    0.14630   1.00
H2       0.71332    0.66395    0.20365   1.00
H2       0.77614    0.64960    0.21477   1.00
H2       0.79575    0.73245    0.20835   1.00
H2       0.77485    0.57029    0.18963   1.00
H2       0.70351    0.56857    0.17822   1.00
H2       0.77497    0.58377    0.16345   1.00
C4       0.16685    0.80565    0.16491   1.00
C4       0.14054    0.83380    0.15049   1.00
C3       0.15576    0.73824    0.16371   1.00
C3       0.09547    0.79550    0.13452   1.00
C3       0.20563    0.84638    0.18170   1.00
C3       0.16012    0.90416    0.15192   1.00
C2       0.21893    0.75136    0.19523   1.00
C2       0.08833    0.89408    0.12221   1.00
C3       0.18072    0.71167    0.17850   1.00
C3       0.07057    0.82492    0.12065   1.00
C3       0.23146    0.81905    0.19626   1.00
C3       0.13215    0.93209    0.13832   1.00
H1       0.12941    0.70655    0.15201   1.00
H1       0.07907    0.74501    0.13257   1.00
C5       0.21860    0.91421    0.18380   1.00
C5       0.20696    0.94617    0.16699   1.00
H1       0.17067    0.66240    0.17691   1.00
H1       0.03859    0.79490    0.10930   1.00
H1       0.26078    0.84949    0.20792   1.00
H1       0.14324    0.98136    0.14034   1.00
O3       0.24592    0.94923    0.20160   1.00
O3       0.23684    1.01635    0.16619   1.00
Si1      0.19551    0.94815    0.21949   1.00
Si1      0.30516    1.05956    0.15241   1.00
C6       0.25864    0.98927    0.23830   1.00
C6       0.16238    1.00003    0.21142   1.00
C6       0.13383    0.86500    0.22710   1.00
C6       0.33602    1.01399    0.13841   1.00
C6       0.28170    1.10456    0.13566   1.00
C6       0.36944    1.11911    0.16853   1.00
C6       0.30934    0.96174    0.24119   1.00
H2       0.28930    1.04045    0.23201   1.00
C6       0.23921    0.99979    0.26033   1.00
H2       0.20149    1.03451    0.20082   1.00
C6       0.09398    0.96617    0.19920   1.00
C6       0.15484    1.04710    0.22735   1.00
H2       0.16452    0.84047    0.22905   1.00
C6       0.09729    0.85746    0.24791   1.00
C6       0.07425    0.81852    0.21221   1.00
C6       0.35397    0.96517    0.15024   1.00
C6       0.29767    0.97490    0.11872   1.00
H2       0.38467    1.05483    0.13271   1.00
H2       0.24453    1.06513    0.12564   1.00
C6       0.24369    1.13952    0.14530   1.00
C6       0.33862    1.15905    0.12166   1.00
H2       0.35839    1.16073    0.16963   1.00
C6       0.36844    1.09583    0.19084   1.00
C6       0.44528    1.15231    0.16126   1.00
H2       0.33447    0.96262    0.22696   1.00
H2       0.28302    0.90936    0.24685   1.00
H2       0.34976    0.99314    0.25195   1.00
H2       0.27992    1.04749    0.26668   1.00
H2       0.19248    1.00216    0.26085   1.00
H2       0.23281    0.95928    0.27066   1.00
H2       0.08676    1.00490    0.19151   1.00
H2       0.09320    0.93213    0.18742   1.00
H2       0.05027    0.93755    0.20919   1.00
H2       0.20328    1.08083    0.23481   1.00
H2       0.13880    1.08032    0.22014   1.00
H2       0.11683    1.01700    0.23885   1.00
H2       0.07468    0.89018    0.24855   1.00
H2       0.05672    0.80498    0.25070   1.00
H2       0.13242    0.86989    0.26053   1.00
H2       0.03071    0.82646    0.21372   1.00
H2       0.08907    0.82637    0.19639   1.00
H2       0.05590    0.76474    0.21551   1.00
H2       0.30900    0.91555    0.15291   1.00
H2       0.38986    0.95621    0.14154   1.00
H2       0.37786    0.98624    0.16481   1.00
H2       0.32796    0.95769    0.11031   1.00
H2       0.24889    0.92979    0.12203   1.00
H2       0.28876    1.00715    0.10834   1.00
H2       0.22117    1.15591    0.13346   1.00
H2       0.20189    1.10427    0.15510   1.00
H2       0.27790    1.18427    0.15426   1.00
H2       0.36671    1.13843    0.11377   1.00
H2       0.31615    1.17619    0.11000   1.00
H2       0.37479    1.20388    0.13028   1.00
H2       0.37639    1.05222    0.19175   1.00
H2       0.40729    1.13693    0.20009   1.00
H2       0.31946    1.08116    0.19772   1.00
H2       0.47883    1.19538    0.17096   1.00
H2       0.46343    1.11578    0.16170   1.00
H2       0.45167    1.17209    0.14585   1.00
C4       1.02130    0.52104    0.66626   1.00
C4       0.96840    0.49276    0.68118   1.00
C3       1.03156    0.48135    0.65151   1.00
C3       0.92453    0.42162    0.68402   1.00
C3       1.06745    0.59286    0.66613   1.00
C3       0.95816    0.53757    0.69404   1.00
C2       1.13153    0.58169    0.63725   1.00
C2       0.86363    0.43955    0.71199   1.00
C3       1.08537    0.51074    0.63748   1.00
C3       0.87316    0.39572    0.69887   1.00
C3       1.12064    0.62168    0.65160   1.00
C3       0.90804    0.51040    0.70948   1.00
H1       1.00011    0.42996    0.65049   1.00
H1       0.92886    0.38652    0.67547   1.00
C5       1.06002    0.63547    0.68046   1.00
C5       0.99830    0.60918    0.69157   1.00
H1       1.09057    0.47942    0.62726   1.00
H1       0.84257    0.34381    0.70011   1.00
H1       1.15219    0.67349    0.65133   1.00
H1       0.90425    0.54307    0.71939   1.00
O3       1.11083    0.70248    0.68251   1.00
O3       0.98066    0.65278    0.70095   1.00
Si1      1.17040    0.72306    0.69952   1.00
Si1      0.92556    0.66860    0.68991   1.00
C6       1.22278    0.80865    0.69191   1.00
C6       1.13348    0.71797    0.72346   1.00
C6       1.21349    0.67646    0.69724   1.00
C6       0.88873    0.62666    0.66680   1.00
C6       0.86145    0.64439    0.70830   1.00
C6       0.96524    0.75760    0.68671   1.00
C6       1.23740    0.82061    0.66858   1.00
H2       1.19107    0.83102    0.69552   1.00
C6       1.29316    0.85571    0.70250   1.00
H2       1.09100    0.72572    0.71958   1.00
C6       1.10128    0.64865    0.73518   1.00
C6       1.17604    0.77366    0.73970   1.00
H2       1.22463    0.68031    0.68101   1.00
C6       1.28385    0.70560    0.70831   1.00
C6       1.17505    0.59832    0.70256   1.00
C6       0.93754    0.63596    0.64878   1.00
C6       0.83271    0.54932    0.66703   1.00
H2       0.86090    0.65202    0.66195   1.00
H2       0.83726    0.58893    0.70875   1.00
C6       0.88629    0.66877    0.73050   1.00
C6       0.80341    0.66097    0.70390   1.00
H2       0.96030    0.77623    0.70152   1.00
C6       1.04337    0.79568    0.68235   1.00
C6       0.93351    0.78588    0.67104   1.00
H2       1.19019    0.79867    0.65981   1.00
H2       1.26725    0.79788    0.66322   1.00
H2       1.26566    0.87502    0.66498   1.00
H2       1.30355    0.90833    0.70289   1.00
H2       1.29495    0.84057    0.71803   1.00
H2       1.33561    0.85661    0.69436   1.00
H2       1.06803    0.64767    0.74737   1.00
H2       1.06972    0.60547    0.72540   1.00
H2       1.14057    0.64066    0.74207   1.00
H2       1.19290    0.82484    0.73395   1.00
H2       1.14563    0.76777    0.75324   1.00
H2       1.22053    0.77045    0.74449   1.00
H2       1.27940    0.71454    0.72437   1.00
H2       1.30444    0.67107    0.70725   1.00
H2       1.32225    0.75293    0.70141   1.00
H2       1.17888    0.58931    0.71864   1.00
H2       1.12128    0.57237    0.69883   1.00
H2       1.19734    0.57261    0.69412   1.00
H2       0.95723    0.60094    0.64988   1.00
H2       0.91040    0.62557    0.63433   1.00
H2       0.98068    0.68766    0.64792   1.00
H2       0.80834    0.53348    0.65215   1.00
H2       0.85361    0.51651    0.67060   1.00
H2       0.79202    0.53856    0.67781   1.00
H2       0.84426    0.64192    0.74123   1.00
H2       0.92632    0.65784    0.73498   1.00
H2       0.90592    0.72335    0.73235   1.00
H2       0.78146    0.64379    0.68885   1.00
H2       0.76184    0.63492    0.71483   1.00
H2       0.82191    0.71557    0.70512   1.00
H2       1.05538    0.77943    0.66813   1.00
H2       1.06468    0.85087    0.68176   1.00
H2       1.06965    0.78561    0.69445   1.00
H2       0.95596    0.84106    0.67270   1.00
H2       0.94238    0.77584    0.65545   1.00
H2       0.87873    0.76354    0.67324   1.00
C4       0.50047    -0.02107   0.66619   1.00
C4       0.52496    0.03187    0.68109   1.00
C3       0.45735    -0.02622   0.64984   1.00
C3       0.50384    0.08122    0.68220   1.00
C3       0.51898    -0.07261   0.66776   1.00
C3       0.57341    0.03640    0.69577   1.00
C2       0.45038    -0.13158   0.63727   1.00
C2       0.57568    0.13642    0.71197   1.00
C3       0.43266    -0.08013   0.63584   1.00
C3       0.52896    0.13245    0.69709   1.00
C3       0.49457    -0.12588   0.65326   1.00
C3       0.59586    0.08661    0.71117   1.00
H1       0.44280    0.00918    0.64758   1.00
H1       0.46927    0.08114    0.67230   1.00
C5       0.56198    -0.07045   0.68375   1.00
C5       0.59878    -0.00950   0.69512   1.00
H1       0.40123    -0.08147   0.62441   1.00
H1       0.51232    0.16711    0.69705   1.00
H1       0.50980    -0.16143   0.65425   1.00
H1       0.62716    0.08646    0.72232   1.00
O3       0.57044    -0.12579   0.68719   1.00
O3       0.65495    0.00207    0.70645   1.00
Si1      0.52177    -0.18390   0.70361   1.00
Si1      0.73097    0.05184    0.69723   1.00
C6       0.54892    -0.24290   0.69811   1.00
C6       0.54827    -0.14854   0.72800   1.00
C6       0.43387    -0.21893   0.69869   1.00
C6       0.73778    0.09104    0.67348   1.00
C6       0.76993    0.11484    0.71597   1.00
C6       0.77324    0.00436    0.69652   1.00
C6       0.55204    -0.25814   0.67506   1.00
H2       0.60190    -0.21573   0.70321   1.00
C6       0.51558    -0.31423   0.70890   1.00
H2       0.60129    -0.10963   0.72533   1.00
C6       0.51382    -0.11029   0.73776   1.00
C6       0.55040    -0.19474   0.74531   1.00
H2       0.43084    -0.22993   0.68246   1.00
C6       0.38371    -0.28818   0.70928   1.00
C6       0.39975    -0.17387   0.70188   1.00
C6       0.70088    0.04410    0.65488   1.00
C6       0.72447    0.15247    0.67202   1.00
H2       0.79213    0.11418    0.67020   1.00
H2       0.74351    0.14391    0.71487   1.00
C6       0.75962    0.08890    0.73842   1.00
C6       0.84765    0.16731    0.71346   1.00
H2       0.79113    0.00694    0.71204   1.00
C6       0.72809    -0.07329   0.69194   1.00
C6       0.83778    0.03075    0.68267   1.00
H2       0.58388    -0.21141   0.66652   1.00
H2       0.50122    -0.28353   0.66825   1.00
H2       0.57419    -0.29092   0.67290   1.00
H2       0.55358    -0.33002   0.71102   1.00
H2       0.49474    -0.31406   0.72373   1.00
H2       0.47444    -0.35418   0.69993   1.00
H2       0.54398    -0.07893   0.75054   1.00
H2       0.50978    -0.07580   0.72710   1.00
H2       0.46299    -0.14616   0.74347   1.00
H2       0.58219    -0.21648   0.74114   1.00
H2       0.57258    -0.16547   0.75920   1.00
H2       0.49922    -0.23605   0.74900   1.00
H2       0.39167    -0.28493   0.72567   1.00
H2       0.33027    -0.30351   0.70650   1.00
H2       0.38967    -0.32966   0.70337   1.00
H2       0.38230    -0.17630   0.71746   1.00
H2       0.43317    -0.12049   0.69835   1.00
H2       0.35506    -0.19185   0.69207   1.00
H2       0.64726    0.02968    0.65424   1.00
H2       0.72420    0.07064    0.64070   1.00
H2       0.70404    -0.00231   0.65503   1.00
H2       0.73994    0.17704    0.65716   1.00
H2       0.67085    0.13668    0.67390   1.00
H2       0.75376    0.19192    0.68320   1.00
H2       0.77535    0.13146    0.74898   1.00
H2       0.70603    0.05266    0.74161   1.00
H2       0.78928    0.06421    0.74187   1.00
H2       0.85939    0.18976    0.69832   1.00
H2       0.86358    0.20935    0.72423   1.00
H2       0.87872    0.14369    0.71631   1.00
H2       0.70481    -0.08277   0.67694   1.00
H2       0.75733    -0.09963   0.69296   1.00
H2       0.68735    -0.09668   0.70304   1.00
H2       0.86511    0.00336    0.68590   1.00
H2       0.82401    0.02349    0.66661   1.00
H2       0.87376    0.08469    0.68519   1.00
C4       0.47847    0.49955    0.66620   1.00
C4       0.50692    0.47507    0.68110   1.00
C3       0.51653    0.54294    0.64990   1.00
C3       0.57743    0.49643    0.68226   1.00
C3       0.40833    0.48077    0.66770   1.00
C3       0.46293    0.42636    0.69570   1.00
C2       0.41804    0.54962    0.63727   1.00
C2       0.56072    0.42432    0.71197   1.00
C3       0.48730    0.56762    0.63589   1.00
C3       0.60353    0.47129    0.69716   1.00
C3       0.37948    0.50518    0.65320   1.00
C3       0.49068    0.40389    0.71111   1.00
H1       0.56654    0.55770    0.64768   1.00
H1       0.61196    0.53118    0.67241   1.00
C5       0.36741    0.43750    0.68363   1.00
C5       0.39164    0.40075    0.69500   1.00
H1       0.51746    0.59925    0.62451   1.00
H1       0.65487    0.48811    0.69716   1.00
H1       0.32864    0.48976    0.65414   1.00
H1       0.45917    0.37239    0.72222   1.00
O3       0.30347    0.42874    0.68703   1.00
O3       0.34705    0.34437    0.70625   1.00
Si1      0.29362    0.47708    0.70347   1.00
Si1      0.32117    0.26851    0.69696   1.00
C6       0.20746    0.44969    0.69790   1.00
C6       0.30233    0.45038    0.72786   1.00
C6       0.34628    0.56508    0.69865   1.00
C6       0.35393    0.26213    0.67323   1.00
C6       0.34522    0.22951    0.71569   1.00
C6       0.23142    0.22596    0.69616   1.00
C6       0.18935    0.44677    0.67483   1.00
H2       0.18176    0.39665    0.70294   1.00
C6       0.16912    0.48267    0.70869   1.00
H2       0.28844    0.39745    0.72514   1.00
C6       0.37492    0.48495    0.73768   1.00
C6       0.25370    0.44785    0.74513   1.00
H2       0.33847    0.56826    0.68242   1.00
C6       0.32682    0.61492    0.70927   1.00
C6       0.42545    0.59942    0.70192   1.00
C6       0.34392    0.29914    0.65465   1.00
C6       0.42879    0.27576    0.67183   1.00
H2       0.32292    0.20780    0.66988   1.00
H2       0.40072    0.25612    0.71465   1.00
C6       0.32924    0.23947    0.73814   1.00
C6       0.32027    0.15189    0.71310   1.00
H2       0.21598    0.20786    0.71166   1.00
C6       0.19871    0.27093    0.69160   1.00
C6       0.19361    0.16156    0.68224   1.00
H2       0.20449    0.41516    0.66629   1.00
H2       0.21468    0.49767    0.66808   1.00
H2       0.13441    0.42446    0.67263   1.00
H2       0.11535    0.44449    0.71075   1.00
H2       0.18992    0.50337    0.72355   1.00
H2       0.17025    0.52383    0.69975   1.00
H2       0.37611    0.45471    0.75045   1.00
H2       0.41364    0.48928    0.72705   1.00
H2       0.38964    0.53567    0.74344   1.00
H2       0.20025    0.41595    0.74090   1.00
H2       0.26075    0.42558    0.75901   1.00
H2       0.26334    0.49892    0.74887   1.00
H2       0.32194    0.60676    0.72565   1.00
H2       0.36481    0.66844    0.70655   1.00
H2       0.27936    0.60884    0.70332   1.00
H2       0.44024    0.61671    0.71752   1.00
H2       0.44563    0.56620    0.69838   1.00
H2       0.45214    0.64424    0.69216   1.00
H2       0.38299    0.35282    0.65408   1.00
H2       0.34741    0.27604    0.64046   1.00
H2       0.29426    0.29577    0.65476   1.00
H2       0.43814    0.26053    0.65696   1.00
H2       0.46644    0.32939    0.67377   1.00
H2       0.43897    0.24644    0.68299   1.00
H2       0.35608    0.22376    0.74870   1.00
H2       0.34637    0.29298    0.74138   1.00
H2       0.27488    0.20961    0.74153   1.00
H2       0.33123    0.14039    0.69796   1.00
H2       0.34638    0.13597    0.72388   1.00
H2       0.26556    0.12062    0.71590   1.00
H2       0.21262    0.29440    0.67662   1.00
H2       0.14313    0.24151    0.69255   1.00
H2       0.21580    0.31153    0.70274   1.00
H2       0.13886    0.13402    0.68541   1.00
H2       0.20027    0.17552    0.66620   1.00
H2       0.21174    0.12570    0.68475   1.00
C4       0.47628    -0.02744   0.16825   1.00
C4       0.50529    0.02711    0.18263   1.00
C3       0.50018    -0.07404   0.16526   1.00
C3       0.56483    0.04429    0.19411   1.00
C3       0.42093    -0.03573   0.15587   1.00
C3       0.47337    0.06700    0.18590   1.00
C2       0.41709    -0.13433   0.13816   1.00
C2       0.56167    0.13917    0.21108   1.00
C3       0.47169    -0.12578   0.15055   1.00
C3       0.59190    0.09837    0.20808   1.00
C3       0.39206    -0.08904   0.14138   1.00
C3       0.50313    0.12308    0.19941   1.00
H1       0.53883    -0.07190   0.17372   1.00
H1       0.59052    0.01831    0.19256   1.00
C5       0.39459    0.00911    0.15810   1.00
C5       0.41233    0.05119    0.17556   1.00
H1       0.49141    -0.15766   0.14897   1.00
H1       0.63473    0.10807    0.21608   1.00
H1       0.35115    -0.09553   0.13300   1.00
H1       0.48216    0.15379    0.20061   1.00
O3       0.34929    0.00825    0.14398   1.00
O3       0.37354    0.07989    0.18136   1.00
Si1      0.37741    0.06069    0.12475   1.00
Si1      0.31830    0.04430    0.19966   1.00
C6       0.29952    0.02602    0.11141   1.00
C6       0.40215    0.14282    0.13407   1.00
C6       0.44017    0.05477    0.11044   1.00
C6       0.31286    -0.02786   0.21182   1.00
C6       0.34348    0.11065    0.21732   1.00
C6       0.23802    0.02468    0.18997   1.00
C6       0.25931    -0.05356   0.10910   1.00
H2       0.26847    0.03778    0.12147   1.00
C6       0.29540    0.05440    0.09005   1.00
H2       0.37088    0.13119    0.14769   1.00
C6       0.47754    0.18898    0.14127   1.00
C6       0.38577    0.19066    0.12105   1.00
H2       0.41723    -0.00029   0.10842   1.00
C6       0.45527    0.08616    0.08859   1.00
C6       0.51280    0.08054    0.11986   1.00
C6       0.29729    -0.09109   0.19846   1.00
C6       0.36997    -0.01835   0.22709   1.00
H2       0.26803    -0.04479   0.22145   1.00
H2       0.39148    0.11769    0.22333   1.00
C6       0.36080    0.18174    0.20849   1.00
C6       0.29589    0.09736    0.23601   1.00
H2       0.23822    0.07294    0.19077   1.00
C6       0.22468    0.00346    0.16720   1.00
C6       0.17285    -0.02843   0.20175   1.00
H2       0.24970    -0.07893   0.12381   1.00
H2       0.28742    -0.07105   0.09974   1.00
H2       0.20951    -0.07123   0.10207   1.00
H2       0.24583    0.05103    0.08816   1.00
H2       0.33436    0.10740    0.08785   1.00
H2       0.30022    0.02513    0.07764   1.00
H2       0.48248    0.23133    0.15051   1.00
H2       0.49492    0.16120    0.15069   1.00
H2       0.51210    0.21080    0.12838   1.00
H2       0.33144    0.16658    0.11763   1.00
H2       0.39893    0.23780    0.12918   1.00
H2       0.41449    0.20484    0.10685   1.00
H2       0.46751    0.13932    0.08889   1.00
H2       0.49798    0.08440    0.08143   1.00
H2       0.41219    0.05755    0.07852   1.00
H2       0.54708    0.13482    0.11714   1.00
H2       0.51194    0.07265    0.13608   1.00
H2       0.53638    0.05335    0.11301   1.00
H2       0.34327    -0.08556   0.19140   1.00
H2       0.27580    -0.13727   0.20774   1.00
H2       0.26043    -0.10007   0.18655   1.00
H2       0.35464    -0.06566   0.23541   1.00
H2       0.41776    -0.00479   0.21951   1.00
H2       0.37990    0.02043    0.23850   1.00
H2       0.38674    0.22167    0.21989   1.00
H2       0.39521    0.19570    0.19549   1.00
H2       0.31516    0.18266    0.20368   1.00
H2       0.28269    0.04943    0.24356   1.00
H2       0.32148    0.13786    0.24728   1.00
H2       0.24884    0.09623    0.23161   1.00
H2       0.22581    -0.04333   0.16423   1.00
H2       0.17556    -0.00389   0.16209   1.00
H2       0.26357    0.04347    0.15785   1.00
H2       0.12747    -0.02833   0.19611   1.00
H2       0.16427    -0.08014   0.20002   1.00
H2       0.17645    -0.01677   0.21790   1.00
C4       1.02455    0.49512    0.16740   1.00
C4       0.97144    0.47086    0.18224   1.00
C3       1.07712    0.47827    0.16743   1.00
C3       0.96908    0.43255    0.19958   1.00
C3       1.02632    0.53957    0.15176   1.00
C3       0.91725    0.48522    0.17975   1.00
C2       1.13208    0.54897    0.13744   1.00
C2       0.86308    0.42497    0.21180   1.00
C3       1.12963    0.50474    0.15294   1.00
C3       0.91608    0.40967    0.21386   1.00
C3       1.07901    0.56471    0.13706   1.00
C3       0.86590    0.46421    0.19476   1.00
H1       1.07866    0.44610    0.17793   1.00
H1       1.00601    0.42049    0.20242   1.00
C5       0.97528    0.55840    0.15086   1.00
C5       0.91483    0.52096    0.16241   1.00
H1       1.16655    0.49116    0.15381   1.00
H1       0.91671    0.38165    0.22602   1.00
H1       1.07856    0.59503    0.12561   1.00
H1       0.82989    0.47863    0.19342   1.00
O3       0.98330    0.60978    0.13796   1.00
O3       0.85674    0.52362    0.15766   1.00
Si1      1.01802    0.68804    0.14629   1.00
Si1      0.79635    0.46105    0.14477   1.00
C6       1.02448    0.72736    0.12263   1.00
C6       0.95785    0.69293    0.16211   1.00
C6       1.09913    0.71766    0.15729   1.00
C6       0.80699    0.39120    0.13824   1.00
C6       0.72481    0.43288    0.16056   1.00
C6       0.78231    0.49659    0.12280   1.00
C6       1.05495    0.70496    0.10484   1.00
H2       0.97103    0.70761    0.11865   1.00
C6       1.05923    0.80696    0.12078   1.00
H2       0.90983    0.65144    0.15628   1.00
C6       0.95843    0.67827    0.18528   1.00
C6       0.95079    0.75817    0.16101   1.00
H2       1.12445    0.70257    0.14601   1.00
C6       1.14560    0.79663    0.16001   1.00
C6       1.10509    0.68724    0.17812   1.00
C6       0.87157    0.40580    0.12573   1.00
C6       0.79808    0.33809    0.15493   1.00
H2       0.76395    0.36201    0.12808   1.00
H2       0.73564    0.40883    0.17325   1.00
C6       0.71388    0.48983    0.17027   1.00
C6       0.65424    0.37807    0.15179   1.00
H2       0.74985    0.51649    0.12800   1.00
C6       0.84615    0.55921    0.11345   1.00
C6       0.74350    0.44776    0.10466   1.00
H2       1.02671    0.64974    0.10270   1.00
H2       1.10831    0.72042    0.10769   1.00
H2       1.05235    0.72758    0.09046   1.00
H2       1.03439    0.82035    0.10886   1.00
H2       1.05643    0.83112    0.13470   1.00
H2       1.11298    0.83064    0.11658   1.00
H2       0.91087    0.66860    0.19247   1.00
H2       0.96275    0.63321    0.18803   1.00
H2       1.00020    0.72162    0.19303   1.00
H2       0.93998    0.76754    0.14559   1.00
H2       0.90837    0.75261    0.17036   1.00
H2       0.99705    0.80308    0.16641   1.00
H2       1.11907    0.81811    0.16836   1.00
H2       1.19268    0.80991    0.16820   1.00
H2       1.16210    0.82227    0.14546   1.00
H2       1.09982    0.71445    0.19103   1.00
H2       1.06750    0.63386    0.18004   1.00
H2       1.15517    0.69133    0.17939   1.00
H2       0.91590    0.42158    0.13544   1.00
H2       0.86294    0.35982    0.11775   1.00
H2       0.88443    0.44505    0.11429   1.00
H2       0.79660    0.29340    0.14805   1.00
H2       0.83984    0.35885    0.16579   1.00
H2       0.75040    0.31919    0.16327   1.00
H2       0.67575    0.46851    0.18235   1.00
H2       0.76081    0.52990    0.17715   1.00
H2       0.69643    0.51347    0.15916   1.00
H2       0.65651    0.33505    0.14519   1.00
H2       0.61587    0.35748    0.16383   1.00
H2       0.63614    0.39977    0.14022   1.00
H2       0.88415    0.54642    0.10831   1.00
H2       0.83247    0.58058    0.10064   1.00
H2       0.87003    0.59932    0.12472   1.00
H2       0.72890    0.47353    0.09337   1.00
H2       0.77516    0.43067    0.09703   1.00
H2       0.69661    0.40287    0.10961   1.00
C4       0.50516    0.52915    0.16721   1.00
C4       0.52950    0.50046    0.18208   1.00
C3       0.52921    0.60009    0.16546   1.00
C3       0.57564    0.53905    0.19781   1.00
C3       0.45312    0.48480    0.15344   1.00
C3       0.50697    0.42930    0.18133   1.00
C2       0.45093    0.58285    0.13738   1.00
C2       0.57513    0.43839    0.21186   1.00
C3       0.50260    0.62622    0.15104   1.00
C3       0.59835    0.50903    0.21217   1.00
C3       0.42785    0.51228    0.13876   1.00
C3       0.52819    0.39953    0.19646   1.00
H1       0.56692    0.63489    0.17456   1.00
H1       0.59377    0.59002    0.19936   1.00
C5       0.42686    0.41334    0.15438   1.00
C5       0.46296    0.38806    0.16561   1.00
H1       0.52163    0.67794    0.15057   1.00
H1       0.63217    0.53956    0.22310   1.00
H1       0.39188    0.48003    0.12862   1.00
H1       0.50821    0.34783    0.19647   1.00
O3       0.36929    0.37007    0.14348   1.00
O3       0.45144    0.32289    0.16221   1.00
Si1      0.29437    0.33694    0.15418   1.00
Si1      0.50516    0.31299    0.14815   1.00
C6       0.24541    0.29969    0.13215   1.00
C6       0.28762    0.27418    0.17135   1.00
C6       0.27705    0.39853    0.16461   1.00
C6       0.57740    0.38669    0.13862   1.00
C6       0.53171    0.26883    0.16420   1.00
C6       0.45828    0.25819    0.12806   1.00
C6       0.26622    0.34673    0.11294   1.00
H2       0.25823    0.26038    0.12851   1.00
C6       0.16542    0.26204    0.13280   1.00
H2       0.32325    0.26010    0.16490   1.00
C6       0.31137    0.29586    0.19376   1.00
C6       0.21791    0.20603    0.17305   1.00
H2       0.29191    0.43550    0.15226   1.00
C6       0.20079    0.37530    0.16953   1.00
C6       0.31715    0.43970    0.18393   1.00
C6       0.56542    0.43714    0.12543   1.00
C6       0.63804    0.43186    0.15323   1.00
H2       0.59917    0.36507    0.12826   1.00
H2       0.56282    0.30661    0.17560   1.00
C6       0.47411    0.20778    0.17637   1.00
C6       0.57754    0.24238    0.15475   1.00
H2       0.43535    0.20730    0.13472   1.00
C6       0.39696    0.26446    0.11997   1.00
C6       0.49832    0.25661    0.10889   1.00
H2       0.31997    0.36738    0.10917   1.00
H2       0.25749    0.38955    0.11527   1.00
H2       0.23702    0.31840    0.09962   1.00
H2       0.14409    0.21964    0.12203   1.00
H2       0.14473    0.24127    0.14766   1.00
H2       0.14558    0.29539    0.12846   1.00
H2       0.31835    0.25707    0.20151   1.00
H2       0.36017    0.34300    0.19458   1.00
H2       0.27373    0.30227    0.20234   1.00
H2       0.20124    0.18097    0.15834   1.00
H2       0.22197    0.16954    0.18300   1.00
H2       0.17833    0.21495    0.17926   1.00
H2       0.17803    0.33019    0.17924   1.00
H2       0.19550    0.41525    0.17721   1.00
H2       0.17067    0.36423    0.15577   1.00
H2       0.29260    0.41317    0.19796   1.00
H2       0.36931    0.45012    0.18448   1.00
H2       0.31939    0.48908    0.18431   1.00
H2       0.55771    0.47238    0.13478   1.00
H2       0.60976    0.46800    0.11583   1.00
H2       0.52168    0.41066    0.11539   1.00
H2       0.68228    0.46942    0.14463   1.00
H2       0.62520    0.46015    0.16398   1.00
H2       0.65508    0.40184    0.16175   1.00
H2       0.49620    0.19127    0.18831   1.00
H2       0.44022    0.22237    0.18384   1.00
H2       0.44321    0.16393    0.16666   1.00
H2       0.62059    0.28241    0.14641   1.00
H2       0.59881    0.22491    0.16668   1.00
H2       0.54842    0.19947    0.14452   1.00
H2       0.41314    0.31465    0.11355   1.00
H2       0.36829    0.22613    0.10840   1.00
H2       0.36180    0.25616    0.13228   1.00
H2       0.46546    0.21373    0.09904   1.00
H2       0.51735    0.30329    0.09996   1.00
H2       0.54153    0.25037    0.11298   1.00
C4       0.63940    0.81004    0.66515   1.00
C4       0.69396    0.83895    0.65078   1.00
C3       0.59610    0.83722    0.66924   1.00
C3       0.71459    0.90129    0.64043   1.00
C3       0.62764    0.75124    0.67639   1.00
C3       0.73024    0.80401    0.64632   1.00
C2       0.53232    0.75059    0.69518   1.00
C2       0.80584    0.89485    0.62226   1.00
C3       0.54428    0.80859    0.68391   1.00
C3       0.76856    0.92818    0.62642   1.00
C3       0.57427    0.72236    0.69086   1.00
C3       0.78634    0.83344    0.63281   1.00
H1       0.60080    0.87848    0.66162   1.00
H1       0.69129    0.92921    0.64286   1.00
C5       0.66907    0.72151    0.67303   1.00
C5       0.71084    0.74024    0.65549   1.00
H1       0.51490    0.83075    0.68632   1.00
H1       0.78084    0.97315    0.61926   1.00
H1       0.56523    0.67908    0.69840   1.00
H1       0.81451    0.81000    0.63077   1.00
O3       0.66516    0.67226    0.68613   1.00
O3       0.73586    0.69944    0.64849   1.00
Si1      0.71765    0.69411    0.70530   1.00
Si1      0.69777    0.64833    0.62944   1.00
C6       0.67891    0.61369    0.71732   1.00
C6       0.79851    0.71584    0.69555   1.00
C6       0.71623    0.75649    0.72104   1.00
C6       0.62782    0.64985    0.61807   1.00
C6       0.76345    0.67314    0.61156   1.00
C6       0.67338    0.56512    0.63758   1.00
C6       0.59944    0.57716    0.71971   1.00
H2       0.68812    0.58279    0.70645   1.00
C6       0.70600    0.60354    0.73820   1.00
H2       0.78516    0.68694    0.68141   1.00
C6       0.84816    0.79176    0.68946   1.00
C6       0.84353    0.69331    0.70759   1.00
H2       0.66158    0.73617    0.72322   1.00
C6       0.74754    0.76585    0.74280   1.00
C6       0.74603    0.83135    0.71293   1.00
C6       0.56581    0.63554    0.63183   1.00
C6       0.64088    0.71091    0.60397   1.00
H2       0.60843    0.60661    0.60768   1.00
H2       0.77351    0.72325    0.60654   1.00
C6       0.83317    0.68456    0.61989   1.00
C6       0.74737    0.62850    0.59202   1.00
H2       0.71992    0.56225    0.63620   1.00
C6       0.65203    0.54854    0.66027   1.00
C6       0.61772    0.50375    0.62503   1.00
H2       0.57432    0.57172    0.70513   1.00
H2       0.58450    0.60554    0.72988   1.00
H2       0.57901    0.52572    0.72584   1.00
H2       0.69938    0.55233    0.73902   1.00
H2       0.75977    0.63970    0.74061   1.00
H2       0.67812    0.60814    0.75105   1.00
H2       0.88932    0.79574    0.67983   1.00
H2       0.82255    0.81330    0.68079   1.00
H2       0.87157    0.82349    0.70282   1.00
H2       0.81661    0.63831    0.71009   1.00
H2       0.88987    0.70523    0.69919   1.00
H2       0.85917    0.71929    0.72222   1.00
H2       0.79962    0.77494    0.74212   1.00
H2       0.74875    0.80863    0.75090   1.00
H2       0.71702    0.72149    0.75224   1.00
H2       0.80070    0.86252    0.71573   1.00
H2       0.73835    0.83403    0.69682   1.00
H2       0.72143    0.85619    0.72062   1.00
H2       0.57428    0.68123    0.63983   1.00
H2       0.51980    0.61824    0.62266   1.00
H2       0.55463    0.59594    0.64301   1.00
H2       0.59422    0.69985    0.59591   1.00
H2       0.65722    0.75782    0.61243   1.00
H2       0.67893    0.72068    0.59234   1.00
H2       0.87344    0.71074    0.60859   1.00
H2       0.84899    0.71664    0.63345   1.00
H2       0.83095    0.63658    0.62367   1.00
H2       0.70026    0.61953    0.58478   1.00
H2       0.78817    0.65425    0.58085   1.00
H2       0.74309    0.57927    0.59539   1.00
H2       0.60699    0.55229    0.66383   1.00
H2       0.64159    0.49747    0.66437   1.00
H2       0.69326    0.58417    0.66996   1.00
H2       0.61472    0.45594    0.62965   1.00
H2       0.56728    0.49805    0.62720   1.00
H2       0.62920    0.50970    0.60885   1.00
C4       0.17084    0.35764    0.66613   1.00
C4       0.14437    0.30332    0.65167   1.00
C3       0.21572    0.36401    0.68211   1.00
C3       0.15511    0.24676    0.65282   1.00
C3       0.15085    0.40815    0.66489   1.00
C3       0.10502    0.30513    0.63501   1.00
C2       0.21944    0.46712    0.69538   1.00
C2       0.08782    0.19472    0.62206   1.00
C3       0.23907    0.41699    0.69640   1.00
C3       0.12816    0.19426    0.63832   1.00
C3       0.17598    0.46192    0.67924   1.00
C3       0.07590    0.25027    0.62106   1.00
H1       0.23295    0.33048    0.68378   1.00
H1       0.18245    0.24181    0.66429   1.00
C5       0.10611    0.40479    0.64928   1.00
C5       0.09439    0.36127    0.63245   1.00
H1       0.27105    0.41871    0.70771   1.00
H1       0.13808    0.15492    0.63983   1.00
H1       0.16271    0.49883    0.67782   1.00
H1       0.04428    0.25020    0.60998   1.00
O3       0.07806    0.44650    0.65010   1.00
O3       0.06848    0.37075    0.61453   1.00
Si1      0.00338    0.41883    0.66054   1.00
Si1      0.12075    0.41018    0.59582   1.00
C6       0.00366    0.49691    0.66006   1.00
C6       -0.05813   0.35913    0.64376   1.00
C6       -0.00134   0.38946    0.68562   1.00
C6       0.20793    0.43635    0.59911   1.00
C6       0.08705    0.35084    0.57593   1.00
C6       0.11144    0.48058    0.58936   1.00
C6       0.07047    0.56077    0.66790   1.00
H2       0.00189    0.50535    0.64382   1.00
C6       -0.05643   0.50327    0.66962   1.00
H2       -0.03194   0.37530    0.62920   1.00
C6       -0.07914   0.28232    0.64608   1.00
C6       -0.12678   0.35908    0.64094   1.00
H2       0.04509    0.43064    0.69240   1.00
C6       -0.06177   0.38180    0.69911   1.00
C6       0.00025    0.32178    0.68951   1.00
C6       0.24667    0.48457    0.61732   1.00
C6       0.23136    0.38195    0.59837   1.00
H2       0.23097    0.46702    0.58555   1.00
H2       0.09748    0.31065    0.58052   1.00
C6       0.00792    0.31459    0.57296   1.00
C6       0.11958    0.37504    0.55445   1.00
H2       0.06585    0.45874    0.57986   1.00
C6       0.09577    0.51594    0.60717   1.00
C6       0.16927    0.53929    0.57657   1.00
H2       0.11535    0.56740    0.65973   1.00
H2       0.07835    0.55631    0.68405   1.00
H2       0.06852    0.60760    0.66565   1.00
H2       -0.06455   0.53985    0.66098   1.00
H2       -0.10440   0.45526    0.66976   1.00
H2       -0.04570   0.52207    0.68520   1.00
H2       -0.10559   0.25354    0.63249   1.00
H2       -0.03514   0.27561    0.64805   1.00
H2       -0.11354   0.25892    0.65892   1.00
H2       -0.11791   0.40909    0.63626   1.00
H2       -0.15811   0.32344    0.62904   1.00
H2       -0.15673   0.34397    0.65491   1.00
H2       -0.11078   0.35001    0.69165   1.00
H2       -0.06334   0.35889    0.71386   1.00
H2       -0.05648   0.43112    0.70257   1.00
H2       -0.05053   0.27676    0.68879   1.00
H2       0.03195    0.31368    0.67886   1.00
H2       0.02049    0.32276    0.70465   1.00
H2       0.23872    0.45617    0.63135   1.00
H2       0.30159    0.51244    0.61445   1.00
H2       0.23126    0.52245    0.61983   1.00
H2       0.28700    0.40684    0.59775   1.00
H2       0.21516    0.34920    0.61169   1.00
H2       0.21245    0.34972    0.58493   1.00
H2       -0.00934   0.27097    0.56273   1.00
H2       -0.01906   0.29481    0.58730   1.00
H2       -0.00804   0.34880    0.56652   1.00
H2       0.17505    0.39932    0.55496   1.00
H2       0.10151    0.33151    0.54414   1.00
H2       0.10597    0.41080    0.54780   1.00
H2       0.13694    0.53786    0.61828   1.00
H2       0.08680    0.55637    0.60175   1.00
H2       0.04974    0.47900    0.61497   1.00
H2       0.15291    0.57431    0.57095   1.00
H2       0.21537    0.56903    0.58559   1.00
H2       0.18264    0.51967    0.56330   1.00
C4       0.18689    0.82905    0.66607   1.00
C4       0.15898    0.85549    0.65161   1.00
C3       0.14768    0.78149    0.68142   1.00
C3       0.09059    0.84187    0.65220   1.00
C3       0.25813    0.85187    0.66548   1.00
C3       0.20122    0.89785    0.63556   1.00
C2       0.24776    0.78059    0.69536   1.00
C2       0.10680    0.91215    0.62208   1.00
C3       0.17730    0.75819    0.69574   1.00
C3       0.06500    0.86888    0.63774   1.00
C3       0.28680    0.82678    0.67983   1.00
C3       0.17528    0.92691    0.62165   1.00
H1       0.09642    0.76220    0.68260   1.00
H1       0.05748    0.81227    0.66323   1.00
C5       0.30022    0.89936    0.65051   1.00
C5       0.26923    0.91154    0.63355   1.00
H1       0.14648    0.72419    0.70658   1.00
H1       0.01497    0.85681    0.63882   1.00
H1       0.33762    0.84215    0.67887   1.00
H1       0.20739    0.96060    0.61104   1.00
O3       0.37010    0.92975    0.65203   1.00
O3       0.30634    0.94068    0.61610   1.00
Si1      0.41347    1.00343    0.66336   1.00
Si1      0.29786    0.89147    0.59693   1.00
C6       0.49300    1.00667    0.66343   1.00
C6       0.41453    1.06569    0.64707   1.00
C6       0.38507    1.00375    0.68828   1.00
C6       0.23911    0.80322    0.59912   1.00
C6       0.27252    0.92575    0.57712   1.00
C6       0.37961    0.90492    0.59111   1.00
C6       0.49208    0.94033    0.67074   1.00
H2       0.50530    1.01093    0.64729   1.00
C6       0.55699    1.06709    0.67390   1.00
H2       0.40724    1.04154    0.63225   1.00
C6       0.35631    1.08342    0.64915   1.00
C6       0.48182    1.13613    0.64524   1.00
H2       0.38101    0.95732    0.69467   1.00
C6       0.43461    1.06338    0.70258   1.00
C6       0.31393    0.99862    0.69165   1.00
C6       0.24837    0.76350    0.61709   1.00
C6       0.16077    0.77697    0.59765   1.00
H2       0.24958    0.78279    0.58546   1.00
H2       0.22075    0.91274    0.58126   1.00
C6       0.31308    1.00529    0.57504   1.00
C6       0.26806    0.89635    0.55536   1.00
H2       0.40293    0.95169    0.58213   1.00
C6       0.42888    0.92022    0.60939   1.00
C6       0.38468    0.85013    0.57790   1.00
H2       0.45603    0.89585    0.66197   1.00
H2       0.47790    0.93003    0.68674   1.00
H2       0.54209    0.94469    0.66886   1.00
H2       0.60330    1.07810    0.66566   1.00
H2       0.55475    1.11389    0.67440   1.00
H2       0.56385    1.05499    0.68945   1.00
H2       0.35436    1.11087    0.63574   1.00
H2       0.30629    1.03796    0.65041   1.00
H2       0.36444    1.11587    0.66231   1.00
H2       0.52480    1.12989    0.64080   1.00
H2       0.47742    1.16803    0.63356   1.00
H2       0.49394    1.16425    0.65953   1.00
H2       0.45087    1.11294    0.69561   1.00
H2       0.41097    1.06208    0.71717   1.00
H2       0.47940    1.05973    0.70631   1.00
H2       0.31761    1.04854    0.69135   1.00
H2       0.27601    0.96725    0.68050   1.00
H2       0.29337    0.97607    0.70649   1.00
H2       0.22544    0.76856    0.63103   1.00
H2       0.22357    0.70904    0.61363   1.00
H2       0.30180    0.78060    0.62010   1.00
H2       0.13196    0.72136    0.59640   1.00
H2       0.14153    0.79035    0.61096   1.00
H2       0.14792    0.79655    0.58427   1.00
H2       0.28660    1.02227    0.56477   1.00
H2       0.31748    1.03012    0.58963   1.00
H2       0.36436    1.02392    0.56909   1.00
H2       0.23867    0.84074    0.55523   1.00
H2       0.24247    0.91417    0.54501   1.00
H2       0.31866    0.91268    0.54916   1.00
H2       0.40976    0.87777    0.62004   1.00
H2       0.47958    0.93187    0.60438   1.00
H2       0.43514    0.96457    0.61758   1.00
H2       0.43707    0.86910    0.57278   1.00
H2       0.36898    0.80325    0.58645   1.00
H2       0.35317    0.83729    0.56431   1.00
