data_IRMOF10_interpen_symm_ligand1cp_symm_i

_audit_creation_method             'generated by an auxiliary program of Tobunporous'

_symmetry_space_group_name_H-M     'P 1'
_symmetry_Int_Tables_number        1
_symmetry_cell_setting             triclinic

_cell_length_a                    22.6523
_cell_length_b                    22.6523
_cell_length_c                    65.9502
_cell_angle_alpha                 90.0000
_cell_angle_beta                  90.0000
_cell_angle_gamma                 120.0000

loop_
_atom_site_label
_atom_site_fract_x
_atom_site_fract_y
_atom_site_fract_z
_atom_site_occupancy
O1       0.00000    0.00000    0.57470   1.00
Zn      0.00000    0.00000    0.54560   1.00
Zn      0.94843    0.04287    0.58357   1.00
Zn      0.09443    0.05157    0.58357   1.00
Zn      0.95713    0.90557    0.58357   1.00
O2       0.93860    0.02610    0.53560   1.00
O2       0.08750    0.06140    0.53560   1.00
O2       0.97390    0.91250    0.53560   1.00
O2       0.91300    0.07160    0.56150   1.00
O2       0.00463    0.12027    0.60077   1.00
O2       0.87413    0.98077    0.60037   1.00
O2       0.15860    0.08700    0.56150   1.00
O2       0.10663    0.12587    0.60037   1.00
O2       0.11563    0.99537    0.60077   1.00
O2       0.92840    0.84140    0.56150   1.00
O2       0.87973    0.88437    0.60077   1.00
O2       0.01923    0.89337    0.60037   1.00
C1       0.91390    0.06020    0.54330   1.00
C1       0.14630    0.08610    0.54330   1.00
C1       0.93980    0.85370    0.54330   1.00
C1       0.06663    0.14397    0.60637   1.00
C1       0.85603    0.92267    0.60637   1.00
C1       0.07733    0.93337    0.60637   1.00
O1       0.00000    0.00000    0.92530   1.00
Zn      0.00000    0.00000    0.95440   1.00
Zn      0.04287    0.94843    0.91643   1.00
Zn      0.05157    0.09443    0.91643   1.00
Zn      0.90557    0.95713    0.91643   1.00
O2       0.02610    0.93860    0.96440   1.00
O2       0.06140    0.08750    0.96440   1.00
O2       0.91250    0.97390    0.96440   1.00
O2       0.07160    0.91300    0.93850   1.00
O2       0.12027    0.00463    0.89923   1.00
O2       0.98077    0.87413    0.89963   1.00
O2       0.08700    0.15860    0.93850   1.00
O2       0.12587    0.10663    0.89963   1.00
O2       0.99537    0.11563    0.89923   1.00
O2       0.84140    0.92840    0.93850   1.00
O2       0.88437    0.87973    0.89923   1.00
O2       0.89337    0.01923    0.89963   1.00
C1       0.06020    0.91390    0.95670   1.00
C1       0.08610    0.14630    0.95670   1.00
C1       0.85370    0.93980    0.95670   1.00
C1       0.14397    0.06663    0.89363   1.00
C1       0.92267    0.85603    0.89363   1.00
C1       0.93337    0.07733    0.89363   1.00
O1       0.00000    0.00000    0.42530   1.00
Zn      0.00000    0.00000    0.45440   1.00
Zn      0.05157    0.95713    0.41643   1.00
Zn      0.90557    0.94843    0.41643   1.00
Zn      0.04287    0.09443    0.41643   1.00
O2       0.06140    0.97390    0.46440   1.00
O2       0.91250    0.93860    0.46440   1.00
O2       0.02610    0.08750    0.46440   1.00
O2       0.08700    0.92840    0.43850   1.00
O2       0.99537    0.87973    0.39923   1.00
O2       0.12587    0.01923    0.39963   1.00
O2       0.84140    0.91300    0.43850   1.00
O2       0.89337    0.87413    0.39963   1.00
O2       0.88437    0.00463    0.39923   1.00
O2       0.07160    0.15860    0.43850   1.00
O2       0.12027    0.11563    0.39923   1.00
O2       0.98077    0.10663    0.39963   1.00
C1       0.08610    0.93980    0.45670   1.00
C1       0.85370    0.91390    0.45670   1.00
C1       0.06020    0.14630    0.45670   1.00
C1       0.93337    0.85603    0.39363   1.00
C1       0.14397    0.07733    0.39363   1.00
C1       0.92267    0.06663    0.39363   1.00
O1       0.00000    0.00000    0.07470   1.00
Zn      0.00000    0.00000    0.04560   1.00
Zn      0.95713    0.05157    0.08357   1.00
Zn      0.94843    0.90557    0.08357   1.00
Zn      0.09443    0.04287    0.08357   1.00
O2       0.97390    0.06140    0.03560   1.00
O2       0.93860    0.91250    0.03560   1.00
O2       0.08750    0.02610    0.03560   1.00
O2       0.92840    0.08700    0.06150   1.00
O2       0.87973    0.99537    0.10077   1.00
O2       0.01923    0.12587    0.10037   1.00
O2       0.91300    0.84140    0.06150   1.00
O2       0.87413    0.89337    0.10037   1.00
O2       0.00463    0.88437    0.10077   1.00
O2       0.15860    0.07160    0.06150   1.00
O2       0.11563    0.12027    0.10077   1.00
O2       0.10663    0.98077    0.10037   1.00
C1       0.93980    0.08610    0.04330   1.00
C1       0.91390    0.85370    0.04330   1.00
C1       0.14630    0.06020    0.04330   1.00
C1       0.85603    0.93337    0.10637   1.00
C1       0.07733    0.14397    0.10637   1.00
C1       0.06663    0.92267    0.10637   1.00
O1       0.66667    0.33333    0.90803   1.00
Zn      0.66667    0.33333    0.87893   1.00
Zn      0.61510    0.37620    0.91690   1.00
Zn      0.76110    0.38490    0.91690   1.00
Zn      0.62380    0.23890    0.91690   1.00
O2       0.60527    0.35943    0.86893   1.00
O2       0.75417    0.39473    0.86893   1.00
O2       0.64057    0.24583    0.86893   1.00
O2       0.57967    0.40493    0.89483   1.00
O2       0.67130    0.45360    0.93410   1.00
O2       0.54080    0.31410    0.93370   1.00
O2       0.82527    0.42033    0.89483   1.00
O2       0.77330    0.45920    0.93370   1.00
O2       0.78230    0.32870    0.93410   1.00
O2       0.59507    0.17473    0.89483   1.00
O2       0.54640    0.21770    0.93410   1.00
O2       0.68590    0.22670    0.93370   1.00
C1       0.58057    0.39353    0.87663   1.00
C1       0.81297    0.41943    0.87663   1.00
C1       0.60647    0.18703    0.87663   1.00
C1       0.73330    0.47730    0.93970   1.00
C1       0.52270    0.25600    0.93970   1.00
C1       0.74400    0.26670    0.93970   1.00
O1       0.66667    0.33333    0.25863   1.00
Zn      0.66667    0.33333    0.28773   1.00
Zn      0.70953    0.28177    0.24977   1.00
Zn      0.71823    0.42777    0.24977   1.00
Zn      0.57223    0.29047    0.24977   1.00
O2       0.69277    0.27193    0.29773   1.00
O2       0.72807    0.42083    0.29773   1.00
O2       0.57917    0.30723    0.29773   1.00
O2       0.73827    0.24633    0.27183   1.00
O2       0.78693    0.33797    0.23257   1.00
O2       0.64743    0.20747    0.23297   1.00
O2       0.75367    0.49193    0.27183   1.00
O2       0.79253    0.43997    0.23297   1.00
O2       0.66203    0.44897    0.23257   1.00
O2       0.50807    0.26173    0.27183   1.00
O2       0.55103    0.21307    0.23257   1.00
O2       0.56003    0.35257    0.23297   1.00
C1       0.72687    0.24723    0.29003   1.00
C1       0.75277    0.47963    0.29003   1.00
C1       0.52037    0.27313    0.29003   1.00
C1       0.81063    0.39997    0.22697   1.00
C1       0.58933    0.18937    0.22697   1.00
C1       0.60003    0.41067    0.22697   1.00
O1       0.66667    0.33333    0.75863   1.00
Zn      0.66667    0.33333    0.78773   1.00
Zn      0.71823    0.29047    0.74977   1.00
Zn      0.57223    0.28177    0.74977   1.00
Zn      0.70953    0.42777    0.74977   1.00
O2       0.72807    0.30723    0.79773   1.00
O2       0.57917    0.27193    0.79773   1.00
O2       0.69277    0.42083    0.79773   1.00
O2       0.75367    0.26173    0.77183   1.00
O2       0.66203    0.21307    0.73257   1.00
O2       0.79253    0.35257    0.73297   1.00
O2       0.50807    0.24633    0.77183   1.00
O2       0.56003    0.20747    0.73297   1.00
O2       0.55103    0.33797    0.73257   1.00
O2       0.73827    0.49193    0.77183   1.00
O2       0.78693    0.44897    0.73257   1.00
O2       0.64743    0.43997    0.73297   1.00
C1       0.75277    0.27313    0.79003   1.00
C1       0.52037    0.24723    0.79003   1.00
C1       0.72687    0.47963    0.79003   1.00
C1       0.60003    0.18937    0.72697   1.00
C1       0.81063    0.41067    0.72697   1.00
C1       0.58933    0.39997    0.72697   1.00
O1       0.66667    0.33333    0.40803   1.00
Zn      0.66667    0.33333    0.37893   1.00
Zn      0.62380    0.38490    0.41690   1.00
Zn      0.61510    0.23890    0.41690   1.00
Zn      0.76110    0.37620    0.41690   1.00
O2       0.64057    0.39473    0.36893   1.00
O2       0.60527    0.24583    0.36893   1.00
O2       0.75417    0.35943    0.36893   1.00
O2       0.59507    0.42033    0.39483   1.00
O2       0.54640    0.32870    0.43410   1.00
O2       0.68590    0.45920    0.43370   1.00
O2       0.57967    0.17473    0.39483   1.00
O2       0.54080    0.22670    0.43370   1.00
O2       0.67130    0.21770    0.43410   1.00
O2       0.82527    0.40493    0.39483   1.00
O2       0.78230    0.45360    0.43410   1.00
O2       0.77330    0.31410    0.43370   1.00
C1       0.60647    0.41943    0.37663   1.00
C1       0.58057    0.18703    0.37663   1.00
C1       0.81297    0.39353    0.37663   1.00
C1       0.52270    0.26670    0.43970   1.00
C1       0.74400    0.47730    0.43970   1.00
C1       0.73330    0.25600    0.43970   1.00
O1       0.33333    0.66667    0.24137   1.00
Zn      0.33333    0.66667    0.21227   1.00
Zn      0.28177    0.70953    0.25023   1.00
Zn      0.42777    0.71823    0.25023   1.00
Zn      0.29047    0.57223    0.25023   1.00
O2       0.27193    0.69277    0.20227   1.00
O2       0.42083    0.72807    0.20227   1.00
O2       0.30723    0.57917    0.20227   1.00
O2       0.24633    0.73827    0.22817   1.00
O2       0.33797    0.78693    0.26743   1.00
O2       0.20747    0.64743    0.26703   1.00
O2       0.49193    0.75367    0.22817   1.00
O2       0.43997    0.79253    0.26703   1.00
O2       0.44897    0.66203    0.26743   1.00
O2       0.26173    0.50807    0.22817   1.00
O2       0.21307    0.55103    0.26743   1.00
O2       0.35257    0.56003    0.26703   1.00
C1       0.24723    0.72687    0.20997   1.00
C1       0.47963    0.75277    0.20997   1.00
C1       0.27313    0.52037    0.20997   1.00
C1       0.39997    0.81063    0.27303   1.00
C1       0.18937    0.58933    0.27303   1.00
C1       0.41067    0.60003    0.27303   1.00
O1       0.33333    0.66667    0.59197   1.00
Zn      0.33333    0.66667    0.62107   1.00
Zn      0.37620    0.61510    0.58310   1.00
Zn      0.38490    0.76110    0.58310   1.00
Zn      0.23890    0.62380    0.58310   1.00
O2       0.35943    0.60527    0.63107   1.00
O2       0.39473    0.75417    0.63107   1.00
O2       0.24583    0.64057    0.63107   1.00
O2       0.40493    0.57967    0.60517   1.00
O2       0.45360    0.67130    0.56590   1.00
O2       0.31410    0.54080    0.56630   1.00
O2       0.42033    0.82527    0.60517   1.00
O2       0.45920    0.77330    0.56630   1.00
O2       0.32870    0.78230    0.56590   1.00
O2       0.17473    0.59507    0.60517   1.00
O2       0.21770    0.54640    0.56590   1.00
O2       0.22670    0.68590    0.56630   1.00
C1       0.39353    0.58057    0.62337   1.00
C1       0.41943    0.81297    0.62337   1.00
C1       0.18703    0.60647    0.62337   1.00
C1       0.47730    0.73330    0.56030   1.00
C1       0.25600    0.52270    0.56030   1.00
C1       0.26670    0.74400    0.56030   1.00
O1       0.33333    0.66667    0.09197   1.00
Zn      0.33333    0.66667    0.12107   1.00
Zn      0.38490    0.62380    0.08310   1.00
Zn      0.23890    0.61510    0.08310   1.00
Zn      0.37620    0.76110    0.08310   1.00
O2       0.39473    0.64057    0.13107   1.00
O2       0.24583    0.60527    0.13107   1.00
O2       0.35943    0.75417    0.13107   1.00
O2       0.42033    0.59507    0.10517   1.00
O2       0.32870    0.54640    0.06590   1.00
O2       0.45920    0.68590    0.06630   1.00
O2       0.17473    0.57967    0.10517   1.00
O2       0.22670    0.54080    0.06630   1.00
O2       0.21770    0.67130    0.06590   1.00
O2       0.40493    0.82527    0.10517   1.00
O2       0.45360    0.78230    0.06590   1.00
O2       0.31410    0.77330    0.06630   1.00
C1       0.41943    0.60647    0.12337   1.00
C1       0.18703    0.58057    0.12337   1.00
C1       0.39353    0.81297    0.12337   1.00
C1       0.26670    0.52270    0.06030   1.00
C1       0.47730    0.74400    0.06030   1.00
C1       0.25600    0.73330    0.06030   1.00
O1       0.33333    0.66667    0.74137   1.00
Zn      0.33333    0.66667    0.71227   1.00
Zn      0.29047    0.71823    0.75023   1.00
Zn      0.28177    0.57223    0.75023   1.00
Zn      0.42777    0.70953    0.75023   1.00
O2       0.30723    0.72807    0.70227   1.00
O2       0.27193    0.57917    0.70227   1.00
O2       0.42083    0.69277    0.70227   1.00
O2       0.26173    0.75367    0.72817   1.00
O2       0.21307    0.66203    0.76743   1.00
O2       0.35257    0.79253    0.76703   1.00
O2       0.24633    0.50807    0.72817   1.00
O2       0.20747    0.56003    0.76703   1.00
O2       0.33797    0.55103    0.76743   1.00
O2       0.49193    0.73827    0.72817   1.00
O2       0.44897    0.78693    0.76743   1.00
O2       0.43997    0.64743    0.76703   1.00
C1       0.27313    0.75277    0.70997   1.00
C1       0.24723    0.52037    0.70997   1.00
C1       0.47963    0.72687    0.70997   1.00
C1       0.18937    0.60003    0.77303   1.00
C1       0.41067    0.81063    0.77303   1.00
C1       0.39997    0.58933    0.77303   1.00
C2       0.78301    0.53951    0.45363   1.00
C3       0.76667    0.58825    0.45431   1.00
H1       0.73634    0.58789    0.44474   1.00
C3       0.82594    0.53995    0.46809   1.00
H1       0.83726    0.50574    0.46808   1.00
C4       0.79272    0.63914    0.46866   1.00
C5       0.77378    0.69477    0.46953   1.00
H2       0.73287    0.67913    0.47734   1.00
H2       0.76637    0.70548    0.45602   1.00
H2       0.81013    0.73477    0.47572   1.00
C4       0.85321    0.58990    0.48282   1.00
C5       0.90099    0.58893    0.49955   1.00
H2       0.94755    0.61730    0.49555   1.00
H2       0.89163    0.54312    0.50157   1.00
H2       0.89313    0.60594    0.51199   1.00
C6       0.83575    0.63966    0.48346   1.00
C6       0.86385    0.69283    0.49944   1.00
C4       0.82800    0.68446    0.51726   1.00
C5       0.76542    0.61869    0.52153   1.00
H2       0.72642    0.62035    0.51661   1.00
H2       0.76122    0.61066    0.53581   1.00
H2       0.76836    0.58248    0.51480   1.00
C4       0.92605    0.75126    0.49567   1.00
C5       0.96723    0.76371    0.47619   1.00
H2       0.99676    0.74475    0.47759   1.00
H2       0.99418    0.81178    0.47372   1.00
H2       0.93672    0.74211    0.46505   1.00
C3       0.85423    0.73656    0.53142   1.00
H1       0.83085    0.73068    0.54355   1.00
C3       0.94895    0.80373    0.51094   1.00
H1       0.98974    0.84405    0.50882   1.00
C2       0.91370    0.79640    0.52810   1.00
C2       0.46049    0.24350    0.45363   1.00
C3       0.41175    0.17842    0.45431   1.00
H1       0.41211    0.14845    0.44474   1.00
C3       0.46005    0.28599    0.46809   1.00
H1       0.49426    0.33152    0.46808   1.00
C4       0.36086    0.15358    0.46866   1.00
C5       0.30523    0.07901    0.46953   1.00
H2       0.32087    0.05374    0.47734   1.00
H2       0.29452    0.06089    0.45602   1.00
H2       0.26523    0.07536    0.47572   1.00
C4       0.41010    0.26331    0.48282   1.00
C5       0.41107    0.31206    0.49955   1.00
H2       0.38270    0.33025    0.49555   1.00
H2       0.45688    0.34851    0.50157   1.00
H2       0.39406    0.28719    0.51199   1.00
C6       0.36034    0.19609    0.48346   1.00
C6       0.30717    0.17102    0.49944   1.00
C4       0.31554    0.14354    0.51726   1.00
C5       0.38131    0.14673    0.52153   1.00
H2       0.37965    0.10607    0.51661   1.00
H2       0.38934    0.15056    0.53581   1.00
H2       0.41752    0.18588    0.51480   1.00
C4       0.24874    0.17479    0.49567   1.00
C5       0.23629    0.20352    0.47619   1.00
H2       0.25525    0.25201    0.47759   1.00
H2       0.18822    0.18240    0.47372   1.00
H2       0.25789    0.19461    0.46505   1.00
C3       0.26344    0.11767    0.53142   1.00
H1       0.26932    0.10017    0.54355   1.00
C3       0.19627    0.14522    0.51094   1.00
H1       0.15595    0.14569    0.50882   1.00
C2       0.20360    0.11730    0.52810   1.00
C2       0.75650    0.21699    0.45363   1.00
C3       0.82158    0.23333    0.45431   1.00
H1       0.85155    0.26366    0.44474   1.00
C3       0.71401    0.17406    0.46809   1.00
H1       0.66848    0.16274    0.46808   1.00
C4       0.84642    0.20728    0.46866   1.00
C5       0.92099    0.22622    0.46953   1.00
H2       0.94626    0.26713    0.47734   1.00
H2       0.93911    0.23363    0.45602   1.00
H2       0.92464    0.18987    0.47572   1.00
C4       0.73669    0.14679    0.48282   1.00
C5       0.68794    0.09901    0.49955   1.00
H2       0.66975    0.05245    0.49555   1.00
H2       0.65149    0.10837    0.50157   1.00
H2       0.71281    0.10687    0.51199   1.00
C6       0.80391    0.16425    0.48346   1.00
C6       0.82898    0.13615    0.49944   1.00
C4       0.85646    0.17200    0.51726   1.00
C5       0.85327    0.23458    0.52153   1.00
H2       0.89393    0.27358    0.51661   1.00
H2       0.84944    0.23878    0.53581   1.00
H2       0.81412    0.23164    0.51480   1.00
C4       0.82521    0.07395    0.49567   1.00
C5       0.79648    0.03277    0.47619   1.00
H2       0.74799    0.00324    0.47759   1.00
H2       0.81760    0.00582    0.47372   1.00
H2       0.80539    0.06328    0.46505   1.00
C3       0.88233    0.14577    0.53142   1.00
H1       0.89983    0.16915    0.54355   1.00
C3       0.85478    0.05105    0.51094   1.00
H1       0.85431    0.01026    0.50882   1.00
C2       0.88270    0.08630    0.52810   1.00
C2       0.53951    0.78301    0.04637   1.00
C3       0.58825    0.76667    0.04569   1.00
H1       0.58789    0.73634    0.05526   1.00
C3       0.53995    0.82594    0.03191   1.00
H1       0.50574    0.83726    0.03192   1.00
C4       0.63914    0.79272    0.03134   1.00
C5       0.69477    0.77378    0.03047   1.00
H2       0.67913    0.73287    0.02266   1.00
H2       0.70548    0.76637    0.04398   1.00
H2       0.73477    0.81013    0.02428   1.00
C4       0.58990    0.85321    0.01718   1.00
C5       0.58893    0.90099    0.00045   1.00
H2       0.61730    0.94755    0.00445   1.00
H2       0.54312    0.89163    0.99843   1.00
H2       0.60594    0.89313    0.98801   1.00
C6       0.63966    0.83575    0.01654   1.00
C6       0.69283    0.86385    0.00056   1.00
C4       0.68446    0.82800    0.98274   1.00
C5       0.61869    0.76542    0.97847   1.00
H2       0.62035    0.72642    0.98339   1.00
H2       0.61066    0.76122    0.96419   1.00
H2       0.58248    0.76836    0.98520   1.00
C4       0.75126    0.92605    0.00433   1.00
C5       0.76371    0.96723    0.02381   1.00
H2       0.74475    0.99676    0.02241   1.00
H2       0.81178    0.99418    0.02628   1.00
H2       0.74211    0.93672    0.03495   1.00
C3       0.73656    0.85423    0.96858   1.00
H1       0.73068    0.83085    0.95645   1.00
C3       0.80373    0.94895    0.98906   1.00
H1       0.84405    0.98974    0.99118   1.00
C2       0.79640    0.91370    0.97190   1.00
C2       0.24350    0.46049    0.04637   1.00
C3       0.17842    0.41175    0.04569   1.00
H1       0.14845    0.41211    0.05526   1.00
C3       0.28599    0.46005    0.03191   1.00
H1       0.33152    0.49426    0.03192   1.00
C4       0.15358    0.36086    0.03134   1.00
C5       0.07901    0.30523    0.03047   1.00
H2       0.05374    0.32087    0.02266   1.00
H2       0.06089    0.29452    0.04398   1.00
H2       0.07536    0.26523    0.02428   1.00
C4       0.26331    0.41010    0.01718   1.00
C5       0.31206    0.41107    0.00045   1.00
H2       0.33025    0.38270    0.00445   1.00
H2       0.34851    0.45688    0.99843   1.00
H2       0.28719    0.39406    0.98801   1.00
C6       0.19609    0.36034    0.01654   1.00
C6       0.17102    0.30717    0.00056   1.00
C4       0.14354    0.31554    0.98274   1.00
C5       0.14673    0.38131    0.97847   1.00
H2       0.10607    0.37965    0.98339   1.00
H2       0.15056    0.38934    0.96419   1.00
H2       0.18588    0.41752    0.98520   1.00
C4       0.17479    0.24874    0.00433   1.00
C5       0.20352    0.23629    0.02381   1.00
H2       0.25201    0.25525    0.02241   1.00
H2       0.18240    0.18822    0.02628   1.00
H2       0.19461    0.25789    0.03495   1.00
C3       0.11767    0.26344    0.96858   1.00
H1       0.10017    0.26932    0.95645   1.00
C3       0.14522    0.19627    0.98906   1.00
H1       0.14569    0.15595    0.99118   1.00
C2       0.11730    0.20360    0.97190   1.00
C2       0.21699    0.75650    0.04637   1.00
C3       0.23333    0.82158    0.04569   1.00
H1       0.26366    0.85155    0.05526   1.00
C3       0.17406    0.71401    0.03191   1.00
H1       0.16274    0.66848    0.03192   1.00
C4       0.20728    0.84642    0.03134   1.00
C5       0.22622    0.92099    0.03047   1.00
H2       0.26713    0.94626    0.02266   1.00
H2       0.23363    0.93911    0.04398   1.00
H2       0.18987    0.92464    0.02428   1.00
C4       0.14679    0.73669    0.01718   1.00
C5       0.09901    0.68794    0.00045   1.00
H2       0.05245    0.66975    0.00445   1.00
H2       0.10837    0.65149    0.99843   1.00
H2       0.10687    0.71281    0.98801   1.00
C6       0.16425    0.80391    0.01654   1.00
C6       0.13615    0.82898    0.00056   1.00
C4       0.17200    0.85646    0.98274   1.00
C5       0.23458    0.85327    0.97847   1.00
H2       0.27358    0.89393    0.98339   1.00
H2       0.23878    0.84944    0.96419   1.00
H2       0.23164    0.81412    0.98520   1.00
C4       0.07395    0.82521    0.00433   1.00
C5       0.03277    0.79648    0.02381   1.00
H2       0.00324    0.74799    0.02241   1.00
H2       0.00582    0.81760    0.02628   1.00
H2       0.06328    0.80539    0.03495   1.00
C3       0.14577    0.88233    0.96858   1.00
H1       0.16915    0.89983    0.95645   1.00
C3       0.05105    0.85478    0.98906   1.00
H1       0.01026    0.85431    0.99118   1.00
C2       0.08630    0.88270    0.97190   1.00
C2       0.21699    0.46049    0.54637   1.00
C3       0.23333    0.41175    0.54569   1.00
H1       0.26366    0.41211    0.55526   1.00
C3       0.17406    0.46005    0.53191   1.00
H1       0.16274    0.49426    0.53192   1.00
C4       0.20728    0.36086    0.53134   1.00
C5       0.22622    0.30523    0.53047   1.00
H2       0.26713    0.32087    0.52266   1.00
H2       0.23363    0.29452    0.54398   1.00
H2       0.18987    0.26523    0.52428   1.00
C4       0.14679    0.41010    0.51718   1.00
C5       0.09901    0.41107    0.50045   1.00
H2       0.05245    0.38270    0.50445   1.00
H2       0.10837    0.45688    0.49843   1.00
H2       0.10687    0.39406    0.48801   1.00
C6       0.16425    0.36034    0.51654   1.00
C6       0.13615    0.30717    0.50056   1.00
C4       0.17200    0.31554    0.48274   1.00
C5       0.23458    0.38131    0.47847   1.00
H2       0.27358    0.37965    0.48339   1.00
H2       0.23878    0.38934    0.46419   1.00
H2       0.23164    0.41752    0.48520   1.00
C4       0.07395    0.24874    0.50433   1.00
C5       0.03277    0.23629    0.52381   1.00
H2       0.00324    0.25525    0.52241   1.00
H2       0.00582    0.18822    0.52628   1.00
H2       0.06328    0.25789    0.53495   1.00
C3       0.14577    0.26344    0.46858   1.00
H1       0.16915    0.26932    0.45645   1.00
C3       0.05105    0.19627    0.48906   1.00
H1       0.01026    0.15595    0.49118   1.00
C2       0.08630    0.20360    0.47190   1.00
C2       0.53951    0.75650    0.54637   1.00
C3       0.58825    0.82158    0.54569   1.00
H1       0.58789    0.85155    0.55526   1.00
C3       0.53995    0.71401    0.53191   1.00
H1       0.50574    0.66848    0.53192   1.00
C4       0.63914    0.84642    0.53134   1.00
C5       0.69477    0.92099    0.53047   1.00
H2       0.67913    0.94626    0.52266   1.00
H2       0.70548    0.93911    0.54398   1.00
H2       0.73477    0.92464    0.52428   1.00
C4       0.58990    0.73669    0.51718   1.00
C5       0.58893    0.68794    0.50045   1.00
H2       0.61730    0.66975    0.50445   1.00
H2       0.54312    0.65149    0.49843   1.00
H2       0.60594    0.71281    0.48801   1.00
C6       0.63966    0.80391    0.51654   1.00
C6       0.69283    0.82898    0.50056   1.00
C4       0.68446    0.85646    0.48274   1.00
C5       0.61869    0.85327    0.47847   1.00
H2       0.62035    0.89393    0.48339   1.00
H2       0.61066    0.84944    0.46419   1.00
H2       0.58248    0.81412    0.48520   1.00
C4       0.75126    0.82521    0.50433   1.00
C5       0.76371    0.79648    0.52381   1.00
H2       0.74475    0.74799    0.52241   1.00
H2       0.81178    0.81760    0.52628   1.00
H2       0.74211    0.80539    0.53495   1.00
C3       0.73656    0.88233    0.46858   1.00
H1       0.73068    0.89983    0.45645   1.00
C3       0.80373    0.85478    0.48906   1.00
H1       0.84405    0.85431    0.49118   1.00
C2       0.79640    0.88270    0.47190   1.00
C2       0.24350    0.78301    0.54637   1.00
C3       0.17842    0.76667    0.54569   1.00
H1       0.14845    0.73634    0.55526   1.00
C3       0.28599    0.82594    0.53191   1.00
H1       0.33152    0.83726    0.53192   1.00
C4       0.15358    0.79272    0.53134   1.00
C5       0.07901    0.77378    0.53047   1.00
H2       0.05374    0.73287    0.52266   1.00
H2       0.06089    0.76637    0.54398   1.00
H2       0.07536    0.81013    0.52428   1.00
C4       0.26331    0.85321    0.51718   1.00
C5       0.31206    0.90099    0.50045   1.00
H2       0.33025    0.94755    0.50445   1.00
H2       0.34851    0.89163    0.49843   1.00
H2       0.28719    0.89313    0.48801   1.00
C6       0.19609    0.83575    0.51654   1.00
C6       0.17102    0.86385    0.50056   1.00
C4       0.14354    0.82800    0.48274   1.00
C5       0.14673    0.76542    0.47847   1.00
H2       0.10607    0.72642    0.48339   1.00
H2       0.15056    0.76122    0.46419   1.00
H2       0.18588    0.76836    0.48520   1.00
C4       0.17479    0.92605    0.50433   1.00
C5       0.20352    0.96723    0.52381   1.00
H2       0.25201    0.99676    0.52241   1.00
H2       0.18240    0.99418    0.52628   1.00
H2       0.19461    0.93672    0.53495   1.00
C3       0.11767    0.85423    0.46858   1.00
H1       0.10017    0.83085    0.45645   1.00
C3       0.14522    0.94895    0.48906   1.00
H1       0.14569    0.98974    0.49118   1.00
C2       0.11730    0.91370    0.47190   1.00
C2       0.46049    0.21699    0.95363   1.00
C3       0.41175    0.23333    0.95431   1.00
H1       0.41211    0.26366    0.94474   1.00
C3       0.46005    0.17406    0.96809   1.00
H1       0.49426    0.16274    0.96808   1.00
C4       0.36086    0.20728    0.96866   1.00
C5       0.30523    0.22622    0.96953   1.00
H2       0.32087    0.26713    0.97734   1.00
H2       0.29452    0.23363    0.95602   1.00
H2       0.26523    0.18987    0.97572   1.00
C4       0.41010    0.14679    0.98282   1.00
C5       0.41107    0.09901    0.99955   1.00
H2       0.38270    0.05245    0.99555   1.00
H2       0.45688    0.10837    0.00157   1.00
H2       0.39406    0.10687    0.01199   1.00
C6       0.36034    0.16425    0.98346   1.00
C6       0.30717    0.13615    0.99944   1.00
C4       0.31554    0.17200    0.01726   1.00
C5       0.38131    0.23458    0.02153   1.00
H2       0.37965    0.27358    0.01661   1.00
H2       0.38934    0.23878    0.03581   1.00
H2       0.41752    0.23164    0.01480   1.00
C4       0.24874    0.07395    0.99567   1.00
C5       0.23629    0.03277    0.97619   1.00
H2       0.25525    0.00324    0.97759   1.00
H2       0.18822    0.00582    0.97372   1.00
H2       0.25789    0.06328    0.96505   1.00
C3       0.26344    0.14577    0.03142   1.00
H1       0.26932    0.16915    0.04355   1.00
C3       0.19627    0.05105    0.01094   1.00
H1       0.15595    0.01026    0.00882   1.00
C2       0.20360    0.08630    0.02810   1.00
C2       0.75650    0.53951    0.95363   1.00
C3       0.82158    0.58825    0.95431   1.00
H1       0.85155    0.58789    0.94474   1.00
C3       0.71401    0.53995    0.96809   1.00
H1       0.66848    0.50574    0.96808   1.00
C4       0.84642    0.63914    0.96866   1.00
C5       0.92099    0.69477    0.96953   1.00
H2       0.94626    0.67913    0.97734   1.00
H2       0.93911    0.70548    0.95602   1.00
H2       0.92464    0.73477    0.97572   1.00
C4       0.73669    0.58990    0.98282   1.00
C5       0.68794    0.58893    0.99955   1.00
H2       0.66975    0.61730    0.99555   1.00
H2       0.65149    0.54312    0.00157   1.00
H2       0.71281    0.60594    0.01199   1.00
C6       0.80391    0.63966    0.98346   1.00
C6       0.82898    0.69283    0.99944   1.00
C4       0.85646    0.68446    0.01726   1.00
C5       0.85327    0.61869    0.02153   1.00
H2       0.89393    0.62035    0.01661   1.00
H2       0.84944    0.61066    0.03581   1.00
H2       0.81412    0.58248    0.01480   1.00
C4       0.82521    0.75126    0.99567   1.00
C5       0.79648    0.76371    0.97619   1.00
H2       0.74799    0.74475    0.97759   1.00
H2       0.81760    0.81178    0.97372   1.00
H2       0.80539    0.74211    0.96505   1.00
C3       0.88233    0.73656    0.03142   1.00
H1       0.89983    0.73068    0.04355   1.00
C3       0.85478    0.80373    0.01094   1.00
H1       0.85431    0.84405    0.00882   1.00
C2       0.88270    0.79640    0.02810   1.00
C2       0.78301    0.24350    0.95363   1.00
C3       0.76667    0.17842    0.95431   1.00
H1       0.73634    0.14845    0.94474   1.00
C3       0.82594    0.28599    0.96809   1.00
H1       0.83726    0.33152    0.96808   1.00
C4       0.79272    0.15358    0.96866   1.00
C5       0.77378    0.07901    0.96953   1.00
H2       0.73287    0.05374    0.97734   1.00
H2       0.76637    0.06089    0.95602   1.00
H2       0.81013    0.07536    0.97572   1.00
C4       0.85321    0.26331    0.98282   1.00
C5       0.90099    0.31206    0.99955   1.00
H2       0.94755    0.33025    0.99555   1.00
H2       0.89163    0.34851    0.00157   1.00
H2       0.89313    0.28719    0.01199   1.00
C6       0.83575    0.19609    0.98346   1.00
C6       0.86385    0.17102    0.99944   1.00
C4       0.82800    0.14354    0.01726   1.00
C5       0.76542    0.14673    0.02153   1.00
H2       0.72642    0.10607    0.01661   1.00
H2       0.76122    0.15056    0.03581   1.00
H2       0.76836    0.18588    0.01480   1.00
C4       0.92605    0.17479    0.99567   1.00
C5       0.96723    0.20352    0.97619   1.00
H2       0.99676    0.25201    0.97759   1.00
H2       0.99418    0.18240    0.97372   1.00
H2       0.93672    0.19461    0.96505   1.00
C3       0.85423    0.11767    0.03142   1.00
H1       0.83085    0.10017    0.04355   1.00
C3       0.94895    0.14522    0.01094   1.00
H1       0.98974    0.14569    0.00882   1.00
C2       0.91370    0.11730    0.02810   1.00
C2       0.44968    0.87284    0.78696   1.00
C3       0.43334    0.92158    0.78764   1.00
H1       0.40301    0.92122    0.77807   1.00
C3       0.49261    0.87328    0.80142   1.00
H1       0.50393    0.83907    0.80141   1.00
C4       0.45939    0.97247    0.80199   1.00
C5       0.44045    0.02810    0.80286   1.00
H2       0.39954    0.01246    0.81067   1.00
H2       0.43304    0.03881    0.78935   1.00
H2       0.47680    0.06810    0.80905   1.00
C4       0.51988    0.92323    0.81615   1.00
C5       0.56766    0.92226    0.83288   1.00
H2       0.61422    0.95063    0.82888   1.00
H2       0.55830    0.87645    0.83490   1.00
H2       0.55980    0.93927    0.84532   1.00
C6       0.50242    0.97299    0.81679   1.00
C6       0.53052    0.02616    0.83277   1.00
C4       0.49467    0.01779    0.85059   1.00
C5       0.43209    0.95202    0.85486   1.00
H2       0.39309    0.95368    0.84994   1.00
H2       0.42789    0.94399    0.86914   1.00
H2       0.43503    0.91581    0.84813   1.00
C4       0.59272    0.08459    0.82900   1.00
C5       0.63390    0.09704    0.80952   1.00
H2       0.66343    0.07808    0.81092   1.00
H2       0.66085    0.14511    0.80705   1.00
H2       0.60339    0.07544    0.79838   1.00
C3       0.52090    0.06989    0.86475   1.00
H1       0.49752    0.06401    0.87688   1.00
C3       0.61562    0.13706    0.84427   1.00
H1       0.65641    0.17738    0.84215   1.00
C2       0.58037    0.12973    0.86143   1.00
C2       0.12716    0.57683    0.78696   1.00
C3       0.07842    0.51175    0.78764   1.00
H1       0.07878    0.48178    0.77807   1.00
C3       0.12672    0.61932    0.80142   1.00
H1       0.16093    0.66485    0.80141   1.00
C4       0.02753    0.48691    0.80199   1.00
C5       0.97190    0.41234    0.80286   1.00
H2       0.98754    0.38707    0.81067   1.00
H2       0.96119    0.39422    0.78935   1.00
H2       0.93190    0.40869    0.80905   1.00
C4       0.07677    0.59664    0.81615   1.00
C5       0.07774    0.64539    0.83288   1.00
H2       0.04937    0.66358    0.82888   1.00
H2       0.12355    0.68184    0.83490   1.00
H2       0.06073    0.62052    0.84532   1.00
C6       0.02701    0.52942    0.81679   1.00
C6       0.97384    0.50435    0.83277   1.00
C4       0.98221    0.47687    0.85059   1.00
C5       0.04798    0.48006    0.85486   1.00
H2       0.04632    0.43940    0.84994   1.00
H2       0.05601    0.48389    0.86914   1.00
H2       0.08419    0.51921    0.84813   1.00
C4       0.91541    0.50812    0.82900   1.00
C5       0.90296    0.53685    0.80952   1.00
H2       0.92192    0.58534    0.81092   1.00
H2       0.85489    0.51573    0.80705   1.00
H2       0.92456    0.52794    0.79838   1.00
C3       0.93011    0.45100    0.86475   1.00
H1       0.93599    0.43350    0.87688   1.00
C3       0.86294    0.47855    0.84427   1.00
H1       0.82262    0.47902    0.84215   1.00
C2       0.87027    0.45063    0.86143   1.00
C2       0.42317    0.55032    0.78696   1.00
C3       0.48825    0.56666    0.78764   1.00
H1       0.51822    0.59699    0.77807   1.00
C3       0.38068    0.50739    0.80142   1.00
H1       0.33515    0.49607    0.80141   1.00
C4       0.51309    0.54061    0.80199   1.00
C5       0.58766    0.55955    0.80286   1.00
H2       0.61293    0.60046    0.81067   1.00
H2       0.60578    0.56696    0.78935   1.00
H2       0.59131    0.52320    0.80905   1.00
C4       0.40336    0.48012    0.81615   1.00
C5       0.35461    0.43234    0.83288   1.00
H2       0.33642    0.38578    0.82888   1.00
H2       0.31816    0.44170    0.83490   1.00
H2       0.37948    0.44020    0.84532   1.00
C6       0.47058    0.49758    0.81679   1.00
C6       0.49565    0.46948    0.83277   1.00
C4       0.52313    0.50533    0.85059   1.00
C5       0.51994    0.56791    0.85486   1.00
H2       0.56060    0.60691    0.84994   1.00
H2       0.51611    0.57211    0.86914   1.00
H2       0.48079    0.56497    0.84813   1.00
C4       0.49188    0.40728    0.82900   1.00
C5       0.46315    0.36610    0.80952   1.00
H2       0.41466    0.33657    0.81092   1.00
H2       0.48427    0.33915    0.80705   1.00
H2       0.47206    0.39661    0.79838   1.00
C3       0.54900    0.47910    0.86475   1.00
H1       0.56650    0.50248    0.87688   1.00
C3       0.52145    0.38438    0.84427   1.00
H1       0.52098    0.34359    0.84215   1.00
C2       0.54937    0.41963    0.86143   1.00
C2       0.20618    0.11634    0.37970   1.00
C3       0.25492    0.10000    0.37902   1.00
H1       0.25456    0.06967    0.38859   1.00
C3       0.20662    0.15927    0.36524   1.00
H1       0.17241    0.17059    0.36525   1.00
C4       0.30581    0.12605    0.36467   1.00
C5       0.36144    0.10711    0.36380   1.00
H2       0.34580    0.06620    0.35599   1.00
H2       0.37215    0.09970    0.37731   1.00
H2       0.40144    0.14346    0.35761   1.00
C4       0.25657    0.18654    0.35051   1.00
C5       0.25560    0.23432    0.33378   1.00
H2       0.28397    0.28088    0.33778   1.00
H2       0.20979    0.22496    0.33176   1.00
H2       0.27261    0.22646    0.32134   1.00
C6       0.30633    0.16908    0.34987   1.00
C6       0.35950    0.19718    0.33389   1.00
C4       0.35113    0.16133    0.31607   1.00
C5       0.28536    0.09875    0.31180   1.00
H2       0.28702    0.05975    0.31672   1.00
H2       0.27733    0.09455    0.29752   1.00
H2       0.24915    0.10169    0.31853   1.00
C4       0.41793    0.25938    0.33766   1.00
C5       0.43038    0.30056    0.35714   1.00
H2       0.41142    0.33009    0.35574   1.00
H2       0.47845    0.32751    0.35961   1.00
H2       0.40878    0.27005    0.36828   1.00
C3       0.40323    0.18756    0.30191   1.00
H1       0.39735    0.16418    0.28978   1.00
C3       0.47040    0.28228    0.32239   1.00
H1       0.51072    0.32307    0.32451   1.00
C2       0.46307    0.24703    0.30523   1.00
C2       0.91017    0.79382    0.37970   1.00
C3       0.84509    0.74508    0.37902   1.00
H1       0.81512    0.74544    0.38859   1.00
C3       0.95266    0.79338    0.36524   1.00
H1       0.99819    0.82759    0.36525   1.00
C4       0.82025    0.69419    0.36467   1.00
C5       0.74568    0.63856    0.36380   1.00
H2       0.72041    0.65420    0.35599   1.00
H2       0.72756    0.62785    0.37731   1.00
H2       0.74203    0.59856    0.35761   1.00
C4       0.92998    0.74343    0.35051   1.00
C5       0.97873    0.74440    0.33378   1.00
H2       0.99692    0.71603    0.33778   1.00
H2       0.01518    0.79021    0.33176   1.00
H2       0.95386    0.72739    0.32134   1.00
C6       0.86276    0.69367    0.34987   1.00
C6       0.83769    0.64050    0.33389   1.00
C4       0.81021    0.64887    0.31607   1.00
C5       0.81340    0.71464    0.31180   1.00
H2       0.77274    0.71298    0.31672   1.00
H2       0.81723    0.72267    0.29752   1.00
H2       0.85255    0.75085    0.31853   1.00
C4       0.84146    0.58207    0.33766   1.00
C5       0.87019    0.56962    0.35714   1.00
H2       0.91868    0.58858    0.35574   1.00
H2       0.84907    0.52155    0.35961   1.00
H2       0.86128    0.59122    0.36828   1.00
C3       0.78434    0.59677    0.30191   1.00
H1       0.76684    0.60265    0.28978   1.00
C3       0.81189    0.52960    0.32239   1.00
H1       0.81236    0.48928    0.32451   1.00
C2       0.78397    0.53693    0.30523   1.00
C2       0.88366    0.08983    0.37970   1.00
C3       0.90000    0.15491    0.37902   1.00
H1       0.93033    0.18488    0.38859   1.00
C3       0.84073    0.04734    0.36524   1.00
H1       0.82941    0.00181    0.36525   1.00
C4       0.87395    0.17975    0.36467   1.00
C5       0.89289    0.25432    0.36380   1.00
H2       0.93380    0.27959    0.35599   1.00
H2       0.90030    0.27244    0.37731   1.00
H2       0.85654    0.25797    0.35761   1.00
C4       0.81346    0.07002    0.35051   1.00
C5       0.76568    0.02127    0.33378   1.00
H2       0.71912    0.00308    0.33778   1.00
H2       0.77504    0.98482    0.33176   1.00
H2       0.77354    0.04614    0.32134   1.00
C6       0.83092    0.13724    0.34987   1.00
C6       0.80282    0.16231    0.33389   1.00
C4       0.83867    0.18979    0.31607   1.00
C5       0.90125    0.18660    0.31180   1.00
H2       0.94025    0.22726    0.31672   1.00
H2       0.90545    0.18277    0.29752   1.00
H2       0.89831    0.14745    0.31853   1.00
C4       0.74062    0.15854    0.33766   1.00
C5       0.69944    0.12981    0.35714   1.00
H2       0.66991    0.08132    0.35574   1.00
H2       0.67249    0.15093    0.35961   1.00
H2       0.72995    0.13872    0.36828   1.00
C3       0.81244    0.21566    0.30191   1.00
H1       0.83582    0.23316    0.28978   1.00
C3       0.71772    0.18811    0.32239   1.00
H1       0.67693    0.18764    0.32451   1.00
C2       0.75297    0.21603    0.30523   1.00
C2       0.88366    0.79382    0.87970   1.00
C3       0.90000    0.74508    0.87902   1.00
H1       0.93033    0.74544    0.88859   1.00
C3       0.84073    0.79338    0.86524   1.00
H1       0.82941    0.82759    0.86525   1.00
C4       0.87395    0.69419    0.86467   1.00
C5       0.89289    0.63856    0.86380   1.00
H2       0.93380    0.65420    0.85599   1.00
H2       0.90030    0.62785    0.87731   1.00
H2       0.85654    0.59856    0.85761   1.00
C4       0.81346    0.74343    0.85051   1.00
C5       0.76568    0.74440    0.83378   1.00
H2       0.71912    0.71603    0.83778   1.00
H2       0.77504    0.79021    0.83176   1.00
H2       0.77354    0.72739    0.82134   1.00
C6       0.83092    0.69367    0.84987   1.00
C6       0.80282    0.64050    0.83389   1.00
C4       0.83867    0.64887    0.81607   1.00
C5       0.90125    0.71464    0.81180   1.00
H2       0.94025    0.71298    0.81672   1.00
H2       0.90545    0.72267    0.79752   1.00
H2       0.89831    0.75085    0.81853   1.00
C4       0.74062    0.58207    0.83766   1.00
C5       0.69944    0.56962    0.85714   1.00
H2       0.66991    0.58858    0.85574   1.00
H2       0.67249    0.52155    0.85961   1.00
H2       0.72995    0.59122    0.86828   1.00
C3       0.81244    0.59677    0.80191   1.00
H1       0.83582    0.60265    0.78978   1.00
C3       0.71772    0.52960    0.82239   1.00
H1       0.67693    0.48928    0.82451   1.00
C2       0.75297    0.53693    0.80523   1.00
C2       0.20618    0.08983    0.87970   1.00
C3       0.25492    0.15491    0.87902   1.00
H1       0.25456    0.18488    0.88859   1.00
C3       0.20662    0.04734    0.86524   1.00
H1       0.17241    0.00181    0.86525   1.00
C4       0.30581    0.17975    0.86467   1.00
C5       0.36144    0.25432    0.86380   1.00
H2       0.34580    0.27959    0.85599   1.00
H2       0.37215    0.27244    0.87731   1.00
H2       0.40144    0.25797    0.85761   1.00
C4       0.25657    0.07002    0.85051   1.00
C5       0.25560    0.02127    0.83378   1.00
H2       0.28397    0.00308    0.83778   1.00
H2       0.20979    0.98482    0.83176   1.00
H2       0.27261    0.04614    0.82134   1.00
C6       0.30633    0.13724    0.84987   1.00
C6       0.35950    0.16231    0.83389   1.00
C4       0.35113    0.18979    0.81607   1.00
C5       0.28536    0.18660    0.81180   1.00
H2       0.28702    0.22726    0.81672   1.00
H2       0.27733    0.18277    0.79752   1.00
H2       0.24915    0.14745    0.81853   1.00
C4       0.41793    0.15854    0.83766   1.00
C5       0.43038    0.12981    0.85714   1.00
H2       0.41142    0.08132    0.85574   1.00
H2       0.47845    0.15093    0.85961   1.00
H2       0.40878    0.13872    0.86828   1.00
C3       0.40323    0.21566    0.80191   1.00
H1       0.39735    0.23316    0.78978   1.00
C3       0.47040    0.18811    0.82239   1.00
H1       0.51072    0.18764    0.82451   1.00
C2       0.46307    0.21603    0.80523   1.00
C2       0.91017    0.11634    0.87970   1.00
C3       0.84509    0.10000    0.87902   1.00
H1       0.81512    0.06967    0.88859   1.00
C3       0.95266    0.15927    0.86524   1.00
H1       0.99819    0.17059    0.86525   1.00
C4       0.82025    0.12605    0.86467   1.00
C5       0.74568    0.10711    0.86380   1.00
H2       0.72041    0.06620    0.85599   1.00
H2       0.72756    0.09970    0.87731   1.00
H2       0.74203    0.14346    0.85761   1.00
C4       0.92998    0.18654    0.85051   1.00
C5       0.97873    0.23432    0.83378   1.00
H2       0.99692    0.28088    0.83778   1.00
H2       0.01518    0.22496    0.83176   1.00
H2       0.95386    0.22646    0.82134   1.00
C6       0.86276    0.16908    0.84987   1.00
C6       0.83769    0.19718    0.83389   1.00
C4       0.81021    0.16133    0.81607   1.00
C5       0.81340    0.09875    0.81180   1.00
H2       0.77274    0.05975    0.81672   1.00
H2       0.81723    0.09455    0.79752   1.00
H2       0.85255    0.10169    0.81853   1.00
C4       0.84146    0.25938    0.83766   1.00
C5       0.87019    0.30056    0.85714   1.00
H2       0.91868    0.33009    0.85574   1.00
H2       0.84907    0.32751    0.85961   1.00
H2       0.86128    0.27005    0.86828   1.00
C3       0.78434    0.18756    0.80191   1.00
H1       0.76684    0.16418    0.78978   1.00
C3       0.81189    0.28228    0.82239   1.00
H1       0.81236    0.32307    0.82451   1.00
C2       0.78397    0.24703    0.80523   1.00
C2       0.12716    0.55032    0.28696   1.00
C3       0.07842    0.56666    0.28764   1.00
H1       0.07878    0.59699    0.27807   1.00
C3       0.12672    0.50739    0.30142   1.00
H1       0.16093    0.49607    0.30141   1.00
C4       0.02753    0.54061    0.30199   1.00
C5       0.97190    0.55955    0.30286   1.00
H2       0.98754    0.60046    0.31067   1.00
H2       0.96119    0.56696    0.28935   1.00
H2       0.93190    0.52320    0.30905   1.00
C4       0.07677    0.48012    0.31615   1.00
C5       0.07774    0.43234    0.33288   1.00
H2       0.04937    0.38578    0.32888   1.00
H2       0.12355    0.44170    0.33490   1.00
H2       0.06073    0.44020    0.34532   1.00
C6       0.02701    0.49758    0.31679   1.00
C6       0.97384    0.46948    0.33277   1.00
C4       0.98221    0.50533    0.35059   1.00
C5       0.04798    0.56791    0.35486   1.00
H2       0.04632    0.60691    0.34994   1.00
H2       0.05601    0.57211    0.36914   1.00
H2       0.08419    0.56497    0.34813   1.00
C4       0.91541    0.40728    0.32900   1.00
C5       0.90296    0.36610    0.30952   1.00
H2       0.92192    0.33657    0.31092   1.00
H2       0.85489    0.33915    0.30705   1.00
H2       0.92456    0.39661    0.29838   1.00
C3       0.93011    0.47910    0.36475   1.00
H1       0.93599    0.50248    0.37688   1.00
C3       0.86294    0.38438    0.34427   1.00
H1       0.82262    0.34359    0.34215   1.00
C2       0.87027    0.41963    0.36143   1.00
C2       0.42317    0.87284    0.28696   1.00
C3       0.48825    0.92158    0.28764   1.00
H1       0.51822    0.92122    0.27807   1.00
C3       0.38068    0.87328    0.30142   1.00
H1       0.33515    0.83907    0.30141   1.00
C4       0.51309    0.97247    0.30199   1.00
C5       0.58766    0.02810    0.30286   1.00
H2       0.61293    0.01246    0.31067   1.00
H2       0.60578    0.03881    0.28935   1.00
H2       0.59131    0.06810    0.30905   1.00
C4       0.40336    0.92323    0.31615   1.00
C5       0.35461    0.92226    0.33288   1.00
H2       0.33642    0.95063    0.32888   1.00
H2       0.31816    0.87645    0.33490   1.00
H2       0.37948    0.93927    0.34532   1.00
C6       0.47058    0.97299    0.31679   1.00
C6       0.49565    0.02616    0.33277   1.00
C4       0.52313    0.01779    0.35059   1.00
C5       0.51994    0.95202    0.35486   1.00
H2       0.56060    0.95368    0.34994   1.00
H2       0.51611    0.94399    0.36914   1.00
H2       0.48079    0.91581    0.34813   1.00
C4       0.49188    0.08459    0.32900   1.00
C5       0.46315    0.09704    0.30952   1.00
H2       0.41466    0.07808    0.31092   1.00
H2       0.48427    0.14511    0.30705   1.00
H2       0.47206    0.07544    0.29838   1.00
C3       0.54900    0.06989    0.36475   1.00
H1       0.56650    0.06401    0.37688   1.00
C3       0.52145    0.13706    0.34427   1.00
H1       0.52098    0.17738    0.34215   1.00
C2       0.54937    0.12973    0.36143   1.00
C2       0.44968    0.57683    0.28696   1.00
C3       0.43334    0.51175    0.28764   1.00
H1       0.40301    0.48178    0.27807   1.00
C3       0.49261    0.61932    0.30142   1.00
H1       0.50393    0.66485    0.30141   1.00
C4       0.45939    0.48691    0.30199   1.00
C5       0.44045    0.41234    0.30286   1.00
H2       0.39954    0.38707    0.31067   1.00
H2       0.43304    0.39422    0.28935   1.00
H2       0.47680    0.40869    0.30905   1.00
C4       0.51988    0.59664    0.31615   1.00
C5       0.56766    0.64539    0.33288   1.00
H2       0.61422    0.66358    0.32888   1.00
H2       0.55830    0.68184    0.33490   1.00
H2       0.55980    0.62052    0.34532   1.00
C6       0.50242    0.52942    0.31679   1.00
C6       0.53052    0.50435    0.33277   1.00
C4       0.49467    0.47687    0.35059   1.00
C5       0.43209    0.48006    0.35486   1.00
H2       0.39309    0.43940    0.34994   1.00
H2       0.42789    0.48389    0.36914   1.00
H2       0.43503    0.51921    0.34813   1.00
C4       0.59272    0.50812    0.32900   1.00
C5       0.63390    0.53685    0.30952   1.00
H2       0.66343    0.58534    0.31092   1.00
H2       0.66085    0.51573    0.30705   1.00
H2       0.60339    0.52794    0.29838   1.00
C3       0.52090    0.45100    0.36475   1.00
H1       0.49752    0.43350    0.37688   1.00
C3       0.61562    0.47855    0.34427   1.00
H1       0.65641    0.47902    0.34215   1.00
C2       0.58037    0.45063    0.36143   1.00
C2       0.11634    0.20618    0.12030   1.00
C3       0.10000    0.25492    0.12098   1.00
H1       0.06967    0.25456    0.11141   1.00
C3       0.15927    0.20662    0.13476   1.00
H1       0.17059    0.17241    0.13475   1.00
C4       0.12605    0.30581    0.13533   1.00
C5       0.10711    0.36144    0.13620   1.00
H2       0.06620    0.34580    0.14401   1.00
H2       0.09970    0.37215    0.12269   1.00
H2       0.14346    0.40144    0.14239   1.00
C4       0.18654    0.25657    0.14949   1.00
C5       0.23432    0.25560    0.16622   1.00
H2       0.28088    0.28397    0.16222   1.00
H2       0.22496    0.20979    0.16824   1.00
H2       0.22646    0.27261    0.17866   1.00
C6       0.16908    0.30633    0.15013   1.00
C6       0.19718    0.35950    0.16611   1.00
C4       0.16133    0.35113    0.18393   1.00
C5       0.09875    0.28536    0.18820   1.00
H2       0.05975    0.28702    0.18328   1.00
H2       0.09455    0.27733    0.20248   1.00
H2       0.10169    0.24915    0.18147   1.00
C4       0.25938    0.41793    0.16234   1.00
C5       0.30056    0.43038    0.14286   1.00
H2       0.33009    0.41142    0.14426   1.00
H2       0.32751    0.47845    0.14039   1.00
H2       0.27005    0.40878    0.13172   1.00
C3       0.18756    0.40323    0.19809   1.00
H1       0.16418    0.39735    0.21022   1.00
C3       0.28228    0.47040    0.17761   1.00
H1       0.32307    0.51072    0.17549   1.00
C2       0.24703    0.46307    0.19477   1.00
C2       0.79382    0.91017    0.12030   1.00
C3       0.74508    0.84509    0.12098   1.00
H1       0.74544    0.81512    0.11141   1.00
C3       0.79338    0.95266    0.13476   1.00
H1       0.82759    0.99819    0.13475   1.00
C4       0.69419    0.82025    0.13533   1.00
C5       0.63856    0.74568    0.13620   1.00
H2       0.65420    0.72041    0.14401   1.00
H2       0.62785    0.72756    0.12269   1.00
H2       0.59856    0.74203    0.14239   1.00
C4       0.74343    0.92998    0.14949   1.00
C5       0.74440    0.97873    0.16622   1.00
H2       0.71603    0.99692    0.16222   1.00
H2       0.79021    0.01518    0.16824   1.00
H2       0.72739    0.95386    0.17866   1.00
C6       0.69367    0.86276    0.15013   1.00
C6       0.64050    0.83769    0.16611   1.00
C4       0.64887    0.81021    0.18393   1.00
C5       0.71464    0.81340    0.18820   1.00
H2       0.71298    0.77274    0.18328   1.00
H2       0.72267    0.81723    0.20248   1.00
H2       0.75085    0.85255    0.18147   1.00
C4       0.58207    0.84146    0.16234   1.00
C5       0.56962    0.87019    0.14286   1.00
H2       0.58858    0.91868    0.14426   1.00
H2       0.52155    0.84907    0.14039   1.00
H2       0.59122    0.86128    0.13172   1.00
C3       0.59677    0.78434    0.19809   1.00
H1       0.60265    0.76684    0.21022   1.00
C3       0.52960    0.81189    0.17761   1.00
H1       0.48928    0.81236    0.17549   1.00
C2       0.53693    0.78397    0.19477   1.00
C2       0.08983    0.88366    0.12030   1.00
C3       0.15491    0.90000    0.12098   1.00
H1       0.18488    0.93033    0.11141   1.00
C3       0.04734    0.84073    0.13476   1.00
H1       0.00181    0.82941    0.13475   1.00
C4       0.17975    0.87395    0.13533   1.00
C5       0.25432    0.89289    0.13620   1.00
H2       0.27959    0.93380    0.14401   1.00
H2       0.27244    0.90030    0.12269   1.00
H2       0.25797    0.85654    0.14239   1.00
C4       0.07002    0.81346    0.14949   1.00
C5       0.02127    0.76568    0.16622   1.00
H2       0.00308    0.71912    0.16222   1.00
H2       0.98482    0.77504    0.16824   1.00
H2       0.04614    0.77354    0.17866   1.00
C6       0.13724    0.83092    0.15013   1.00
C6       0.16231    0.80282    0.16611   1.00
C4       0.18979    0.83867    0.18393   1.00
C5       0.18660    0.90125    0.18820   1.00
H2       0.22726    0.94025    0.18328   1.00
H2       0.18277    0.90545    0.20248   1.00
H2       0.14745    0.89831    0.18147   1.00
C4       0.15854    0.74062    0.16234   1.00
C5       0.12981    0.69944    0.14286   1.00
H2       0.08132    0.66991    0.14426   1.00
H2       0.15093    0.67249    0.14039   1.00
H2       0.13872    0.72995    0.13172   1.00
C3       0.21566    0.81244    0.19809   1.00
H1       0.23316    0.83582    0.21022   1.00
C3       0.18811    0.71772    0.17761   1.00
H1       0.18764    0.67693    0.17549   1.00
C2       0.21603    0.75297    0.19477   1.00
C2       0.87284    0.44968    0.71304   1.00
C3       0.92158    0.43334    0.71236   1.00
H1       0.92122    0.40301    0.72193   1.00
C3       0.87328    0.49261    0.69858   1.00
H1       0.83907    0.50393    0.69859   1.00
C4       0.97247    0.45939    0.69801   1.00
C5       0.02810    0.44045    0.69714   1.00
H2       0.01246    0.39954    0.68933   1.00
H2       0.03881    0.43304    0.71065   1.00
H2       0.06810    0.47680    0.69095   1.00
C4       0.92323    0.51988    0.68385   1.00
C5       0.92226    0.56766    0.66712   1.00
H2       0.95063    0.61422    0.67112   1.00
H2       0.87645    0.55830    0.66510   1.00
H2       0.93927    0.55980    0.65468   1.00
C6       0.97299    0.50242    0.68321   1.00
C6       0.02616    0.53052    0.66723   1.00
C4       0.01779    0.49467    0.64941   1.00
C5       0.95202    0.43209    0.64514   1.00
H2       0.95368    0.39309    0.65006   1.00
H2       0.94399    0.42789    0.63086   1.00
H2       0.91581    0.43503    0.65187   1.00
C4       0.08459    0.59272    0.67100   1.00
C5       0.09704    0.63390    0.69048   1.00
H2       0.07808    0.66343    0.68908   1.00
H2       0.14511    0.66085    0.69295   1.00
H2       0.07544    0.60339    0.70162   1.00
C3       0.06989    0.52090    0.63525   1.00
H1       0.06401    0.49752    0.62312   1.00
C3       0.13706    0.61562    0.65573   1.00
H1       0.17738    0.65641    0.65785   1.00
C2       0.12973    0.58037    0.63857   1.00
C2       0.57683    0.12716    0.71304   1.00
C3       0.51175    0.07842    0.71236   1.00
H1       0.48178    0.07878    0.72193   1.00
C3       0.61932    0.12672    0.69858   1.00
H1       0.66485    0.16093    0.69859   1.00
C4       0.48691    0.02753    0.69801   1.00
C5       0.41234    0.97190    0.69714   1.00
H2       0.38707    0.98754    0.68933   1.00
H2       0.39422    0.96119    0.71065   1.00
H2       0.40869    0.93190    0.69095   1.00
C4       0.59664    0.07677    0.68385   1.00
C5       0.64539    0.07774    0.66712   1.00
H2       0.66358    0.04937    0.67112   1.00
H2       0.68184    0.12355    0.66510   1.00
H2       0.62052    0.06073    0.65468   1.00
C6       0.52942    0.02701    0.68321   1.00
C6       0.50435    0.97384    0.66723   1.00
C4       0.47687    0.98221    0.64941   1.00
C5       0.48006    0.04798    0.64514   1.00
H2       0.43940    0.04632    0.65006   1.00
H2       0.48389    0.05601    0.63086   1.00
H2       0.51921    0.08419    0.65187   1.00
C4       0.50812    0.91541    0.67100   1.00
C5       0.53685    0.90296    0.69048   1.00
H2       0.58534    0.92192    0.68908   1.00
H2       0.51573    0.85489    0.69295   1.00
H2       0.52794    0.92456    0.70162   1.00
C3       0.45100    0.93011    0.63525   1.00
H1       0.43350    0.93599    0.62312   1.00
C3       0.47855    0.86294    0.65573   1.00
H1       0.47902    0.82262    0.65785   1.00
C2       0.45063    0.87027    0.63857   1.00
C2       0.55032    0.42317    0.71304   1.00
C3       0.56666    0.48825    0.71236   1.00
H1       0.59699    0.51822    0.72193   1.00
C3       0.50739    0.38068    0.69858   1.00
H1       0.49607    0.33515    0.69859   1.00
C4       0.54061    0.51309    0.69801   1.00
C5       0.55955    0.58766    0.69714   1.00
H2       0.60046    0.61293    0.68933   1.00
H2       0.56696    0.60578    0.71065   1.00
H2       0.52320    0.59131    0.69095   1.00
C4       0.48012    0.40336    0.68385   1.00
C5       0.43234    0.35461    0.66712   1.00
H2       0.38578    0.33642    0.67112   1.00
H2       0.44170    0.31816    0.66510   1.00
H2       0.44020    0.37948    0.65468   1.00
C6       0.49758    0.47058    0.68321   1.00
C6       0.46948    0.49565    0.66723   1.00
C4       0.50533    0.52313    0.64941   1.00
C5       0.56791    0.51994    0.64514   1.00
H2       0.60691    0.56060    0.65006   1.00
H2       0.57211    0.51611    0.63086   1.00
H2       0.56497    0.48079    0.65187   1.00
C4       0.40728    0.49188    0.67100   1.00
C5       0.36610    0.46315    0.69048   1.00
H2       0.33657    0.41466    0.68908   1.00
H2       0.33915    0.48427    0.69295   1.00
H2       0.39661    0.47206    0.70162   1.00
C3       0.47910    0.54900    0.63525   1.00
H1       0.50248    0.56650    0.62312   1.00
C3       0.38438    0.52145    0.65573   1.00
H1       0.34359    0.52098    0.65785   1.00
C2       0.41963    0.54937    0.63857   1.00
C2       0.55032    0.12716    0.21304   1.00
C3       0.56666    0.07842    0.21236   1.00
H1       0.59699    0.07878    0.22193   1.00
C3       0.50739    0.12672    0.19858   1.00
H1       0.49607    0.16093    0.19859   1.00
C4       0.54061    0.02753    0.19801   1.00
C5       0.55955    0.97190    0.19714   1.00
H2       0.60046    0.98754    0.18933   1.00
H2       0.56696    0.96119    0.21065   1.00
H2       0.52320    0.93190    0.19095   1.00
C4       0.48012    0.07677    0.18385   1.00
C5       0.43234    0.07774    0.16712   1.00
H2       0.38578    0.04937    0.17112   1.00
H2       0.44170    0.12355    0.16510   1.00
H2       0.44020    0.06073    0.15468   1.00
C6       0.49758    0.02701    0.18321   1.00
C6       0.46948    0.97384    0.16723   1.00
C4       0.50533    0.98221    0.14941   1.00
C5       0.56791    0.04798    0.14514   1.00
H2       0.60691    0.04632    0.15006   1.00
H2       0.57211    0.05601    0.13086   1.00
H2       0.56497    0.08419    0.15187   1.00
C4       0.40728    0.91541    0.17100   1.00
C5       0.36610    0.90296    0.19048   1.00
H2       0.33657    0.92192    0.18908   1.00
H2       0.33915    0.85489    0.19295   1.00
H2       0.39661    0.92456    0.20162   1.00
C3       0.47910    0.93011    0.13525   1.00
H1       0.50248    0.93599    0.12312   1.00
C3       0.38438    0.86294    0.15573   1.00
H1       0.34359    0.82262    0.15785   1.00
C2       0.41963    0.87027    0.13857   1.00
C2       0.87284    0.42317    0.21304   1.00
C3       0.92158    0.48825    0.21236   1.00
H1       0.92122    0.51822    0.22193   1.00
C3       0.87328    0.38068    0.19858   1.00
H1       0.83907    0.33515    0.19859   1.00
C4       0.97247    0.51309    0.19801   1.00
C5       0.02810    0.58766    0.19714   1.00
H2       0.01246    0.61293    0.18933   1.00
H2       0.03881    0.60578    0.21065   1.00
H2       0.06810    0.59131    0.19095   1.00
C4       0.92323    0.40336    0.18385   1.00
C5       0.92226    0.35461    0.16712   1.00
H2       0.95063    0.33642    0.17112   1.00
H2       0.87645    0.31816    0.16510   1.00
H2       0.93927    0.37948    0.15468   1.00
C6       0.97299    0.47058    0.18321   1.00
C6       0.02616    0.49565    0.16723   1.00
C4       0.01779    0.52313    0.14941   1.00
C5       0.95202    0.51994    0.14514   1.00
H2       0.95368    0.56060    0.15006   1.00
H2       0.94399    0.51611    0.13086   1.00
H2       0.91581    0.48079    0.15187   1.00
C4       0.08459    0.49188    0.17100   1.00
C5       0.09704    0.46315    0.19048   1.00
H2       0.07808    0.41466    0.18908   1.00
H2       0.14511    0.48427    0.19295   1.00
H2       0.07544    0.47206    0.20162   1.00
C3       0.06989    0.54900    0.13525   1.00
H1       0.06401    0.56650    0.12312   1.00
C3       0.13706    0.52145    0.15573   1.00
H1       0.17738    0.52098    0.15785   1.00
C2       0.12973    0.54937    0.13857   1.00
C2       0.57683    0.44968    0.21304   1.00
C3       0.51175    0.43334    0.21236   1.00
H1       0.48178    0.40301    0.22193   1.00
C3       0.61932    0.49261    0.19858   1.00
H1       0.66485    0.50393    0.19859   1.00
C4       0.48691    0.45939    0.19801   1.00
C5       0.41234    0.44045    0.19714   1.00
H2       0.38707    0.39954    0.18933   1.00
H2       0.39422    0.43304    0.21065   1.00
H2       0.40869    0.47680    0.19095   1.00
C4       0.59664    0.51988    0.18385   1.00
C5       0.64539    0.56766    0.16712   1.00
H2       0.66358    0.61422    0.17112   1.00
H2       0.68184    0.55830    0.16510   1.00
H2       0.62052    0.55980    0.15468   1.00
C6       0.52942    0.50242    0.18321   1.00
C6       0.50435    0.53052    0.16723   1.00
C4       0.47687    0.49467    0.14941   1.00
C5       0.48006    0.43209    0.14514   1.00
H2       0.43940    0.39309    0.15006   1.00
H2       0.48389    0.42789    0.13086   1.00
H2       0.51921    0.43503    0.15187   1.00
C4       0.50812    0.59272    0.17100   1.00
C5       0.53685    0.63390    0.19048   1.00
H2       0.58534    0.66343    0.18908   1.00
H2       0.51573    0.66085    0.19295   1.00
H2       0.52794    0.60339    0.20162   1.00
C3       0.45100    0.52090    0.13525   1.00
H1       0.43350    0.49752    0.12312   1.00
C3       0.47855    0.61562    0.15573   1.00
H1       0.47902    0.65641    0.15785   1.00
C2       0.45063    0.58037    0.13857   1.00
C2       0.79382    0.88366    0.62030   1.00
C3       0.74508    0.90000    0.62098   1.00
H1       0.74544    0.93033    0.61141   1.00
C3       0.79338    0.84073    0.63476   1.00
H1       0.82759    0.82941    0.63475   1.00
C4       0.69419    0.87395    0.63533   1.00
C5       0.63856    0.89289    0.63620   1.00
H2       0.65420    0.93380    0.64401   1.00
H2       0.62785    0.90030    0.62269   1.00
H2       0.59856    0.85654    0.64239   1.00
C4       0.74343    0.81346    0.64949   1.00
C5       0.74440    0.76568    0.66622   1.00
H2       0.71603    0.71912    0.66222   1.00
H2       0.79021    0.77504    0.66824   1.00
H2       0.72739    0.77354    0.67866   1.00
C6       0.69367    0.83092    0.65013   1.00
C6       0.64050    0.80282    0.66611   1.00
C4       0.64887    0.83867    0.68393   1.00
C5       0.71464    0.90125    0.68820   1.00
H2       0.71298    0.94025    0.68328   1.00
H2       0.72267    0.90545    0.70248   1.00
H2       0.75085    0.89831    0.68147   1.00
C4       0.58207    0.74062    0.66234   1.00
C5       0.56962    0.69944    0.64286   1.00
H2       0.58858    0.66991    0.64426   1.00
H2       0.52155    0.67249    0.64039   1.00
H2       0.59122    0.72995    0.63172   1.00
C3       0.59677    0.81244    0.69809   1.00
H1       0.60265    0.83582    0.71022   1.00
C3       0.52960    0.71772    0.67761   1.00
H1       0.48928    0.67693    0.67549   1.00
C2       0.53693    0.75297    0.69477   1.00
C2       0.08983    0.20618    0.62030   1.00
C3       0.15491    0.25492    0.62098   1.00
H1       0.18488    0.25456    0.61141   1.00
C3       0.04734    0.20662    0.63476   1.00
H1       0.00181    0.17241    0.63475   1.00
C4       0.17975    0.30581    0.63533   1.00
C5       0.25432    0.36144    0.63620   1.00
H2       0.27959    0.34580    0.64401   1.00
H2       0.27244    0.37215    0.62269   1.00
H2       0.25797    0.40144    0.64239   1.00
C4       0.07002    0.25657    0.64949   1.00
C5       0.02127    0.25560    0.66622   1.00
H2       0.00308    0.28397    0.66222   1.00
H2       0.98482    0.20979    0.66824   1.00
H2       0.04614    0.27261    0.67866   1.00
C6       0.13724    0.30633    0.65013   1.00
C6       0.16231    0.35950    0.66611   1.00
C4       0.18979    0.35113    0.68393   1.00
C5       0.18660    0.28536    0.68820   1.00
H2       0.22726    0.28702    0.68328   1.00
H2       0.18277    0.27733    0.70248   1.00
H2       0.14745    0.24915    0.68147   1.00
C4       0.15854    0.41793    0.66234   1.00
C5       0.12981    0.43038    0.64286   1.00
H2       0.08132    0.41142    0.64426   1.00
H2       0.15093    0.47845    0.64039   1.00
H2       0.13872    0.40878    0.63172   1.00
C3       0.21566    0.40323    0.69809   1.00
H1       0.23316    0.39735    0.71022   1.00
C3       0.18811    0.47040    0.67761   1.00
H1       0.18764    0.51072    0.67549   1.00
C2       0.21603    0.46307    0.69477   1.00
C2       0.11634    0.91017    0.62030   1.00
C3       0.10000    0.84509    0.62098   1.00
H1       0.06967    0.81512    0.61141   1.00
C3       0.15927    0.95266    0.63476   1.00
H1       0.17059    0.99819    0.63475   1.00
C4       0.12605    0.82025    0.63533   1.00
C5       0.10711    0.74568    0.63620   1.00
H2       0.06620    0.72041    0.64401   1.00
H2       0.09970    0.72756    0.62269   1.00
H2       0.14346    0.74203    0.64239   1.00
C4       0.18654    0.92998    0.64949   1.00
C5       0.23432    0.97873    0.66622   1.00
H2       0.28088    0.99692    0.66222   1.00
H2       0.22496    0.01518    0.66824   1.00
H2       0.22646    0.95386    0.67866   1.00
C6       0.16908    0.86276    0.65013   1.00
C6       0.19718    0.83769    0.66611   1.00
C4       0.16133    0.81021    0.68393   1.00
C5       0.09875    0.81340    0.68820   1.00
H2       0.05975    0.77274    0.68328   1.00
H2       0.09455    0.81723    0.70248   1.00
H2       0.10169    0.85255    0.68147   1.00
C4       0.25938    0.84146    0.66234   1.00
C5       0.30056    0.87019    0.64286   1.00
H2       0.33009    0.91868    0.64426   1.00
H2       0.32751    0.84907    0.64039   1.00
H2       0.27005    0.86128    0.63172   1.00
C3       0.18756    0.78434    0.69809   1.00
H1       0.16418    0.76684    0.71022   1.00
C3       0.28228    0.81189    0.67761   1.00
H1       0.32307    0.81236    0.67549   1.00
C2       0.24703    0.78397    0.69477   1.00
