data_IRMOF10_interpen_symm_ligand4cp_label_e_2.

_audit_creation_method             'generated by an auxiliary program of Tobunporous'

_symmetry_space_group_name_H-M     'P 1'
_symmetry_Int_Tables_number        1
_symmetry_cell_setting             triclinic

_cell_length_a                    22.6523
_cell_length_b                    22.6523
_cell_length_c                    65.9502
_cell_angle_alpha                 90.0000
_cell_angle_beta                  90.0000
_cell_angle_gamma                 120.0000

loop_
_atom_site_label
_atom_site_fract_x
_atom_site_fract_y
_atom_site_fract_z
_atom_site_occupancy
O1       0.00000    0.00000    0.57470   1.00
Zn1      0.00000    0.00000    0.54560   1.00
Zn1      0.94843    0.04287    0.58357   1.00
Zn1      0.09443    0.05157    0.58357   1.00
Zn1      0.95713    0.90557    0.58357   1.00
O2       0.93860    0.02610    0.53560   1.00
O2       0.08750    0.06140    0.53560   1.00
O2       0.97390    0.91250    0.53560   1.00
O2       0.91300    0.07160    0.56150   1.00
O2       0.00463    0.12027    0.60077   1.00
O2       0.87413    0.98077    0.60037   1.00
O2       0.15860    0.08700    0.56150   1.00
O2       0.10663    0.12587    0.60037   1.00
O2       0.11563    0.99537    0.60077   1.00
O2       0.92840    0.84140    0.56150   1.00
O2       0.87973    0.88437    0.60077   1.00
O2       0.01923    0.89337    0.60037   1.00
C1       0.91390    0.06020    0.54330   1.00
C1       0.14630    0.08610    0.54330   1.00
C1       0.93980    0.85370    0.54330   1.00
C1       0.06663    0.14397    0.60637   1.00
C1       0.85603    0.92267    0.60637   1.00
C1       0.07733    0.93337    0.60637   1.00
O1       0.00000    0.00000    0.92530   1.00
Zn1      0.00000    0.00000    0.95440   1.00
Zn1      0.04287    0.94843    0.91643   1.00
Zn1      0.05157    0.09443    0.91643   1.00
Zn1      0.90557    0.95713    0.91643   1.00
O2       0.02610    0.93860    0.96440   1.00
O2       0.06140    0.08750    0.96440   1.00
O2       0.91250    0.97390    0.96440   1.00
O2       0.07160    0.91300    0.93850   1.00
O2       0.12027    0.00463    0.89923   1.00
O2       0.98077    0.87413    0.89963   1.00
O2       0.08700    0.15860    0.93850   1.00
O2       0.12587    0.10663    0.89963   1.00
O2       0.99537    0.11563    0.89923   1.00
O2       0.84140    0.92840    0.93850   1.00
O2       0.88437    0.87973    0.89923   1.00
O2       0.89337    0.01923    0.89963   1.00
C1       0.06020    0.91390    0.95670   1.00
C1       0.08610    0.14630    0.95670   1.00
C1       0.85370    0.93980    0.95670   1.00
C1       0.14397    0.06663    0.89363   1.00
C1       0.92267    0.85603    0.89363   1.00
C1       0.93337    0.07733    0.89363   1.00
O1       0.00000    0.00000    0.42530   1.00
Zn1      0.00000    0.00000    0.45440   1.00
Zn1      0.05157    0.95713    0.41643   1.00
Zn1      0.90557    0.94843    0.41643   1.00
Zn1      0.04287    0.09443    0.41643   1.00
O2       0.06140    0.97390    0.46440   1.00
O2       0.91250    0.93860    0.46440   1.00
O2       0.02610    0.08750    0.46440   1.00
O2       0.08700    0.92840    0.43850   1.00
O2       0.99537    0.87973    0.39923   1.00
O2       0.12587    0.01923    0.39963   1.00
O2       0.84140    0.91300    0.43850   1.00
O2       0.89337    0.87413    0.39963   1.00
O2       0.88437    0.00463    0.39923   1.00
O2       0.07160    0.15860    0.43850   1.00
O2       0.12027    0.11563    0.39923   1.00
O2       0.98077    0.10663    0.39963   1.00
C1       0.08610    0.93980    0.45670   1.00
C1       0.85370    0.91390    0.45670   1.00
C1       0.06020    0.14630    0.45670   1.00
C1       0.93337    0.85603    0.39363   1.00
C1       0.14397    0.07733    0.39363   1.00
C1       0.92267    0.06663    0.39363   1.00
O1       0.00000    0.00000    0.07470   1.00
Zn1      0.00000    0.00000    0.04560   1.00
Zn1      0.95713    0.05157    0.08357   1.00
Zn1      0.94843    0.90557    0.08357   1.00
Zn1      0.09443    0.04287    0.08357   1.00
O2       0.97390    0.06140    0.03560   1.00
O2       0.93860    0.91250    0.03560   1.00
O2       0.08750    0.02610    0.03560   1.00
O2       0.92840    0.08700    0.06150   1.00
O2       0.87973    0.99537    0.10077   1.00
O2       0.01923    0.12587    0.10037   1.00
O2       0.91300    0.84140    0.06150   1.00
O2       0.87413    0.89337    0.10037   1.00
O2       0.00463    0.88437    0.10077   1.00
O2       0.15860    0.07160    0.06150   1.00
O2       0.11563    0.12027    0.10077   1.00
O2       0.10663    0.98077    0.10037   1.00
C1       0.93980    0.08610    0.04330   1.00
C1       0.91390    0.85370    0.04330   1.00
C1       0.14630    0.06020    0.04330   1.00
C1       0.85603    0.93337    0.10637   1.00
C1       0.07733    0.14397    0.10637   1.00
C1       0.06663    0.92267    0.10637   1.00
O1       0.66667    0.33333    0.90803   1.00
Zn1      0.66667    0.33333    0.87893   1.00
Zn1      0.61510    0.37620    0.91690   1.00
Zn1      0.76110    0.38490    0.91690   1.00
Zn1      0.62380    0.23890    0.91690   1.00
O2       0.60527    0.35943    0.86893   1.00
O2       0.75417    0.39473    0.86893   1.00
O2       0.64057    0.24583    0.86893   1.00
O2       0.57967    0.40493    0.89483   1.00
O2       0.67130    0.45360    0.93410   1.00
O2       0.54080    0.31410    0.93370   1.00
O2       0.82527    0.42033    0.89483   1.00
O2       0.77330    0.45920    0.93370   1.00
O2       0.78230    0.32870    0.93410   1.00
O2       0.59507    0.17473    0.89483   1.00
O2       0.54640    0.21770    0.93410   1.00
O2       0.68590    0.22670    0.93370   1.00
C1       0.58057    0.39353    0.87663   1.00
C1       0.81297    0.41943    0.87663   1.00
C1       0.60647    0.18703    0.87663   1.00
C1       0.73330    0.47730    0.93970   1.00
C1       0.52270    0.25600    0.93970   1.00
C1       0.74400    0.26670    0.93970   1.00
O1       0.66667    0.33333    0.25863   1.00
Zn1      0.66667    0.33333    0.28773   1.00
Zn1      0.70953    0.28177    0.24977   1.00
Zn1      0.71823    0.42777    0.24977   1.00
Zn1      0.57223    0.29047    0.24977   1.00
O2       0.69277    0.27193    0.29773   1.00
O2       0.72807    0.42083    0.29773   1.00
O2       0.57917    0.30723    0.29773   1.00
O2       0.73827    0.24633    0.27183   1.00
O2       0.78693    0.33797    0.23257   1.00
O2       0.64743    0.20747    0.23297   1.00
O2       0.75367    0.49193    0.27183   1.00
O2       0.79253    0.43997    0.23297   1.00
O2       0.66203    0.44897    0.23257   1.00
O2       0.50807    0.26173    0.27183   1.00
O2       0.55103    0.21307    0.23257   1.00
O2       0.56003    0.35257    0.23297   1.00
C1       0.72687    0.24723    0.29003   1.00
C1       0.75277    0.47963    0.29003   1.00
C1       0.52037    0.27313    0.29003   1.00
C1       0.81063    0.39997    0.22697   1.00
C1       0.58933    0.18937    0.22697   1.00
C1       0.60003    0.41067    0.22697   1.00
O1       0.66667    0.33333    0.75863   1.00
Zn1      0.66667    0.33333    0.78773   1.00
Zn1      0.71823    0.29047    0.74977   1.00
Zn1      0.57223    0.28177    0.74977   1.00
Zn1      0.70953    0.42777    0.74977   1.00
O2       0.72807    0.30723    0.79773   1.00
O2       0.57917    0.27193    0.79773   1.00
O2       0.69277    0.42083    0.79773   1.00
O2       0.75367    0.26173    0.77183   1.00
O2       0.66203    0.21307    0.73257   1.00
O2       0.79253    0.35257    0.73297   1.00
O2       0.50807    0.24633    0.77183   1.00
O2       0.56003    0.20747    0.73297   1.00
O2       0.55103    0.33797    0.73257   1.00
O2       0.73827    0.49193    0.77183   1.00
O2       0.78693    0.44897    0.73257   1.00
O2       0.64743    0.43997    0.73297   1.00
C1       0.75277    0.27313    0.79003   1.00
C1       0.52037    0.24723    0.79003   1.00
C1       0.72687    0.47963    0.79003   1.00
C1       0.60003    0.18937    0.72697   1.00
C1       0.81063    0.41067    0.72697   1.00
C1       0.58933    0.39997    0.72697   1.00
O1       0.66667    0.33333    0.40803   1.00
Zn1      0.66667    0.33333    0.37893   1.00
Zn1      0.62380    0.38490    0.41690   1.00
Zn1      0.61510    0.23890    0.41690   1.00
Zn1      0.76110    0.37620    0.41690   1.00
O2       0.64057    0.39473    0.36893   1.00
O2       0.60527    0.24583    0.36893   1.00
O2       0.75417    0.35943    0.36893   1.00
O2       0.59507    0.42033    0.39483   1.00
O2       0.54640    0.32870    0.43410   1.00
O2       0.68590    0.45920    0.43370   1.00
O2       0.57967    0.17473    0.39483   1.00
O2       0.54080    0.22670    0.43370   1.00
O2       0.67130    0.21770    0.43410   1.00
O2       0.82527    0.40493    0.39483   1.00
O2       0.78230    0.45360    0.43410   1.00
O2       0.77330    0.31410    0.43370   1.00
C1       0.60647    0.41943    0.37663   1.00
C1       0.58057    0.18703    0.37663   1.00
C1       0.81297    0.39353    0.37663   1.00
C1       0.52270    0.26670    0.43970   1.00
C1       0.74400    0.47730    0.43970   1.00
C1       0.73330    0.25600    0.43970   1.00
O1       0.33333    0.66667    0.24137   1.00
Zn1      0.33333    0.66667    0.21227   1.00
Zn1      0.28177    0.70953    0.25023   1.00
Zn1      0.42777    0.71823    0.25023   1.00
Zn1      0.29047    0.57223    0.25023   1.00
O2       0.27193    0.69277    0.20227   1.00
O2       0.42083    0.72807    0.20227   1.00
O2       0.30723    0.57917    0.20227   1.00
O2       0.24633    0.73827    0.22817   1.00
O2       0.33797    0.78693    0.26743   1.00
O2       0.20747    0.64743    0.26703   1.00
O2       0.49193    0.75367    0.22817   1.00
O2       0.43997    0.79253    0.26703   1.00
O2       0.44897    0.66203    0.26743   1.00
O2       0.26173    0.50807    0.22817   1.00
O2       0.21307    0.55103    0.26743   1.00
O2       0.35257    0.56003    0.26703   1.00
C1       0.24723    0.72687    0.20997   1.00
C1       0.47963    0.75277    0.20997   1.00
C1       0.27313    0.52037    0.20997   1.00
C1       0.39997    0.81063    0.27303   1.00
C1       0.18937    0.58933    0.27303   1.00
C1       0.41067    0.60003    0.27303   1.00
O1       0.33333    0.66667    0.59197   1.00
Zn1      0.33333    0.66667    0.62107   1.00
Zn1      0.37620    0.61510    0.58310   1.00
Zn1      0.38490    0.76110    0.58310   1.00
Zn1      0.23890    0.62380    0.58310   1.00
O2       0.35943    0.60527    0.63107   1.00
O2       0.39473    0.75417    0.63107   1.00
O2       0.24583    0.64057    0.63107   1.00
O2       0.40493    0.57967    0.60517   1.00
O2       0.45360    0.67130    0.56590   1.00
O2       0.31410    0.54080    0.56630   1.00
O2       0.42033    0.82527    0.60517   1.00
O2       0.45920    0.77330    0.56630   1.00
O2       0.32870    0.78230    0.56590   1.00
O2       0.17473    0.59507    0.60517   1.00
O2       0.21770    0.54640    0.56590   1.00
O2       0.22670    0.68590    0.56630   1.00
C1       0.39353    0.58057    0.62337   1.00
C1       0.41943    0.81297    0.62337   1.00
C1       0.18703    0.60647    0.62337   1.00
C1       0.47730    0.73330    0.56030   1.00
C1       0.25600    0.52270    0.56030   1.00
C1       0.26670    0.74400    0.56030   1.00
O1       0.33333    0.66667    0.09197   1.00
Zn1      0.33333    0.66667    0.12107   1.00
Zn1      0.38490    0.62380    0.08310   1.00
Zn1      0.23890    0.61510    0.08310   1.00
Zn1      0.37620    0.76110    0.08310   1.00
O2       0.39473    0.64057    0.13107   1.00
O2       0.24583    0.60527    0.13107   1.00
O2       0.35943    0.75417    0.13107   1.00
O2       0.42033    0.59507    0.10517   1.00
O2       0.32870    0.54640    0.06590   1.00
O2       0.45920    0.68590    0.06630   1.00
O2       0.17473    0.57967    0.10517   1.00
O2       0.22670    0.54080    0.06630   1.00
O2       0.21770    0.67130    0.06590   1.00
O2       0.40493    0.82527    0.10517   1.00
O2       0.45360    0.78230    0.06590   1.00
O2       0.31410    0.77330    0.06630   1.00
C1       0.41943    0.60647    0.12337   1.00
C1       0.18703    0.58057    0.12337   1.00
C1       0.39353    0.81297    0.12337   1.00
C1       0.26670    0.52270    0.06030   1.00
C1       0.47730    0.74400    0.06030   1.00
C1       0.25600    0.73330    0.06030   1.00
O1       0.33333    0.66667    0.74137   1.00
Zn1      0.33333    0.66667    0.71227   1.00
Zn1      0.29047    0.71823    0.75023   1.00
Zn1      0.28177    0.57223    0.75023   1.00
Zn1      0.42777    0.70953    0.75023   1.00
O2       0.30723    0.72807    0.70227   1.00
O2       0.27193    0.57917    0.70227   1.00
O2       0.42083    0.69277    0.70227   1.00
O2       0.26173    0.75367    0.72817   1.00
O2       0.21307    0.66203    0.76743   1.00
O2       0.35257    0.79253    0.76703   1.00
O2       0.24633    0.50807    0.72817   1.00
O2       0.20747    0.56003    0.76703   1.00
O2       0.33797    0.55103    0.76743   1.00
O2       0.49193    0.73827    0.72817   1.00
O2       0.44897    0.78693    0.76743   1.00
O2       0.43997    0.64743    0.76703   1.00
C1       0.27313    0.75277    0.70997   1.00
C1       0.24723    0.52037    0.70997   1.00
C1       0.47963    0.72687    0.70997   1.00
C1       0.18937    0.60003    0.77303   1.00
C1       0.41067    0.81063    0.77303   1.00
C1       0.39997    0.58933    0.77303   1.00
C4       0.83004    0.62970    0.48817   1.00
C4       0.85741    0.68323    0.50287   1.00
C3       0.87194    0.62017    0.47394   1.00
C3       0.92889    0.72639    0.50579   1.00
C3       0.75813    0.58352    0.48741   1.00
C3       0.81232    0.69470    0.51528   1.00
C2       0.77513    0.51946    0.45908   1.00
C2       0.91283    0.79362    0.53191   1.00
C3       0.84549    0.56658    0.45990   1.00
C3       0.95588    0.78014    0.51978   1.00
C3       0.73327    0.52939    0.47295   1.00
C3       0.84187    0.75022    0.52928   1.00
H1       0.92317    0.65222    0.47312   1.00
H1       0.96402    0.71996    0.49800   1.00
C5       0.71308    0.59224    0.50077   1.00
C5       0.73989    0.65113    0.51363   1.00
H1       0.87844    0.56234    0.45010   1.00
H1       1.00791    0.80960    0.52111   1.00
H1       0.68251    0.49525    0.47205   1.00
H1       0.81148    0.76029    0.53827   1.00
C6       0.63809    0.53889    0.50129   1.00
C6       0.69277    0.66825    0.52528   1.00
H2       0.63291    0.48839    0.50121   1.00
H2       0.71149    0.72277    0.52402   1.00
H2       0.61491    0.53870    0.51575   1.00
H2       0.64305    0.64681    0.51809   1.00
C6       0.59600    0.54720    0.48377   1.00
C6       0.68293    0.64453    0.54798   1.00
H2       0.62408    0.55738    0.46951   1.00
H2       0.73227    0.65732    0.55453   1.00
C6       0.52185    0.48691    0.48005   1.00
C6       0.64801    0.67247    0.56257   1.00
H2       0.59330    0.59319    0.48686   1.00
H2       0.65305    0.58887    0.54814   1.00
C6       0.52177    0.42211    0.47237   1.00
C6       0.69285    0.75055    0.56579   1.00
C6       0.47761    0.46921    0.49945   1.00
C6       0.57695    0.65596    0.55466   1.00
C6       0.48805    0.50867    0.46339   1.00
C6       0.63808    0.63773    0.58358   1.00
H2       0.55350    0.43317    0.45886   1.00
H2       0.74379    0.76401    0.57106   1.00
H2       0.54105    0.40152    0.48387   1.00
H2       0.69846    0.77852    0.55181   1.00
H2       0.47031    0.38196    0.46848   1.00
H2       0.67034    0.76875    0.57705   1.00
H2       0.42482    0.43053    0.49633   1.00
H2       0.55103    0.67129    0.56562   1.00
H2       0.49651    0.44912    0.51123   1.00
H2       0.58142    0.68299    0.54055   1.00
H2       0.47796    0.51433    0.50541   1.00
H2       0.54483    0.60142    0.55186   1.00
H2       0.51698    0.52107    0.44926   1.00
H2       0.68695    0.64841    0.58997   1.00
H2       0.43619    0.46796    0.46015   1.00
H2       0.61422    0.65598    0.59437   1.00
H2       0.48534    0.55347    0.46810   1.00
H2       0.60564    0.58251    0.58239   1.00
C4       0.36165    0.18698    0.48529   1.00
C4       0.30475    0.16032    0.49881   1.00
C3       0.41575    0.17253    0.48752   1.00
C3       0.29435    0.11177    0.51417   1.00
C3       0.36550    0.22991    0.46883   1.00
C3       0.25581    0.18240    0.49712   1.00
C2       0.47507    0.23814    0.45736   1.00
C2       0.19153    0.10887    0.52681   1.00
C3       0.47060    0.19698    0.47395   1.00
C3       0.23971    0.08701    0.52782   1.00
C3       0.42203    0.25347    0.45528   1.00
C3       0.20109    0.15624    0.51139   1.00
H1       0.41767    0.14425    0.49921   1.00
H1       0.32572    0.09205    0.51588   1.00
C5       0.31404    0.24858    0.46630   1.00
C5       0.26199    0.22901    0.48142   1.00
H1       0.50785    0.18450    0.47635   1.00
H1       0.23521    0.05227    0.53861   1.00
H1       0.42631    0.28371    0.44333   1.00
H1       0.16553    0.17108    0.51076   1.00
C6       0.31487    0.28795    0.44764   1.00
C6       0.21408    0.25749    0.48114   1.00
H2       0.32554    0.26616    0.43436   1.00
H2       0.20864    0.27177    0.49652   1.00
H2       0.26439    0.27965    0.44411   1.00
H2       0.23647    0.30630    0.47336   1.00
C6       0.36580    0.36653    0.44939   1.00
C6       0.14314    0.20777    0.47133   1.00
H2       0.41406    0.37524    0.45577   1.00
H2       0.12472    0.15604    0.47696   1.00
C6       0.38226    0.41010    0.42957   1.00
C6       0.08464    0.22481    0.47423   1.00
H2       0.34524    0.38705    0.46058   1.00
H2       0.15114    0.20536    0.45508   1.00
C6       0.42172    0.39151    0.41399   1.00
C6       0.06244    0.21853    0.49676   1.00
C6       0.31669    0.40174    0.41950   1.00
C6       0.10577    0.29724    0.46641   1.00
C6       0.42839    0.48644    0.43519   1.00
C6       0.02166    0.17277    0.46182   1.00
H2       0.46776    0.39582    0.42074   1.00
H2       0.04826    0.16828    0.50283   1.00
H2       0.39060    0.33958    0.40842   1.00
H2       0.10315    0.25662    0.50619   1.00
H2       0.43707    0.42530    0.40085   1.00
H2       0.01857    0.22584    0.49842   1.00
H2       0.32904    0.43596    0.40654   1.00
H2       0.06308    0.30676    0.46716   1.00
H2       0.28448    0.34984    0.41399   1.00
H2       0.14699    0.33615    0.47555   1.00
H2       0.28722    0.41315    0.43028   1.00
H2       0.12300    0.30348    0.45070   1.00
H2       0.47585    0.49529    0.44218   1.00
H2       0.00418    0.12069    0.46690   1.00
H2       0.44169    0.51899    0.42179   1.00
H2       -0.02083   0.18230    0.46347   1.00
H2       0.40277    0.50305    0.44586   1.00
H2       0.03373    0.17569    0.44570   1.00
C4       0.81207    0.17295    0.48501   1.00
C4       0.83814    0.14225    0.49857   1.00
C3       0.83767    0.24463    0.48455   1.00
C3       0.89621    0.18149    0.51108   1.00
C3       0.75827    0.13116    0.47129   1.00
C3       0.80562    0.06959    0.49984   1.00
C2       0.76168    0.23546    0.45691   1.00
C2       0.88891    0.08024    0.52672   1.00
C3       0.81357    0.27509    0.47088   1.00
C3       0.92070    0.15157    0.52481   1.00
C3       0.73541    0.16421    0.45753   1.00
C3       0.83193    0.04112    0.51410   1.00
H1       0.87432    0.27733    0.49428   1.00
H1       0.92329    0.23328    0.51054   1.00
C5       0.72848    0.05843    0.47162   1.00
C5       0.74871    0.02739    0.48702   1.00
H1       0.83434    0.32709    0.47127   1.00
H1       0.96264    0.18270    0.53346   1.00
H1       0.69757    0.13627    0.44745   1.00
H1       0.80989    -0.01032   0.51554   1.00
C6       0.67674    0.01550    0.45561   1.00
C6       0.71034    -0.04915   0.49004   1.00
H2       0.69442    0.03982    0.44087   1.00
H2       0.70266    -0.06022   0.50622   1.00
H2       0.67516    -0.03279   0.45329   1.00
H2       0.65814    -0.07217   0.48461   1.00
C6       0.60294    0.00120    0.46043   1.00
C6       0.74583    -0.08564   0.47970   1.00
H2       0.60527    0.04813    0.46565   1.00
H2       0.80063    -0.05684   0.48270   1.00
C6       0.54876    -0.02929   0.44302   1.00
C6       0.71954    -0.16185   0.48550   1.00
H2       0.58384    -0.03356   0.47336   1.00
H2       0.74089    -0.08277   0.46329   1.00
C6       0.56661    0.02185    0.42527   1.00
C6       0.73471    -0.16920   0.50802   1.00
C6       0.54115    -0.09679   0.43476   1.00
C6       0.64206    -0.20715   0.48150   1.00
C6       0.47862    -0.04488   0.45168   1.00
C6       0.75740    -0.18904   0.47220   1.00
H2       0.57342    0.07048    0.43066   1.00
H2       0.78890    -0.13696   0.51141   1.00
H2       0.61340    0.03189    0.41765   1.00
H2       0.70629    -0.15490   0.51828   1.00
H2       0.52622    0.00204    0.41388   1.00
H2       0.72052    -0.22176   0.51154   1.00
H2       0.49991    -0.12011   0.42367   1.00
H2       0.62522    -0.26083   0.48421   1.00
H2       0.58777    -0.08791   0.42724   1.00
H2       0.61269    -0.19316   0.49151   1.00
H2       0.52998    -0.13321   0.44703   1.00
H2       0.62979    -0.20181   0.46585   1.00
H2       0.48101    0.00136    0.45754   1.00
H2       0.81242    -0.15918   0.47461   1.00
H2       0.43908    -0.06591   0.44003   1.00
H2       0.74107    -0.24210   0.47579   1.00
H2       0.46253    -0.08184   0.46403   1.00
H2       0.74756    -0.18647   0.45611   1.00
C4       0.62962    0.82983    0.01181   1.00
C4       0.68317    0.85714    -0.00289   1.00
C3       0.61906    0.87192    0.02568   1.00
C3       0.72526    0.92858    -0.00618   1.00
C3       0.58449    0.75777    0.01291   1.00
C3       0.69576    0.81204    -0.01493   1.00
C2       0.51931    0.77493    0.04087   1.00
C2       0.79362    0.91255    -0.03191   1.00
C3       0.56543    0.84548    0.03971   1.00
C3       0.77904    0.95557    -0.02016   1.00
C3       0.53028    0.73291    0.02735   1.00
C3       0.75128    0.84160    -0.02892   1.00
H1       0.65035    0.92333    0.02624   1.00
H1       0.71799    0.96366    0.00132   1.00
C5       0.59430    0.71258    -0.00008   1.00
C5       0.65328    0.73958    -0.01291   1.00
H1       0.56040    0.87857    0.04924   1.00
H1       0.80770    1.00757    -0.02176   1.00
H1       0.49687    0.68203    0.02850   1.00
H1       0.76212    0.81121    -0.03765   1.00
C6       0.54200    0.63724    -0.00024   1.00
C6       0.67162    0.69264    -0.02414   1.00
H2       0.49108    0.63104    -0.00032   1.00
H2       0.72631    0.71240    -0.02280   1.00
H2       0.54235    0.61344    -0.01452   1.00
H2       0.65101    0.64345    -0.01667   1.00
C6       0.55126    0.59688    0.01762   1.00
C6       0.64793    0.68100    -0.04685   1.00
H2       0.56090    0.62574    0.03171   1.00
H2       0.65982    0.72967    -0.05371   1.00
C6       0.49190    0.52248    0.02166   1.00
C6       0.67695    0.64618    -0.06107   1.00
H2       0.59780    0.59500    0.01472   1.00
H2       0.59233    0.65024    -0.04700   1.00
C6       0.42640    0.52148    0.02908   1.00
C6       0.75490    0.69200    -0.06432   1.00
C6       0.47502    0.47716    0.00251   1.00
C6       0.66177    0.57604    -0.05270   1.00
C6       0.51457    0.49054    0.03864   1.00
C6       0.64212    0.63433    -0.08214   1.00
H2       0.43686    0.55392    0.04240   1.00
H2       0.76743    0.74235    -0.06992   1.00
H2       0.40522    0.53940    0.01737   1.00
H2       0.78301    0.69901    -0.05028   1.00
H2       0.38692    0.46996    0.03319   1.00
H2       0.77381    0.66945    -0.07534   1.00
H2       0.43705    0.42431    0.00588   1.00
H2       0.67785    0.55007    -0.06341   1.00
H2       0.45435    0.49470    -0.00948   1.00
H2       0.68894    0.58191    -0.03852   1.00
H2       0.52062    0.47812    -0.00328   1.00
H2       0.60733    0.54327    -0.04987   1.00
H2       0.52644    0.52029    0.05260   1.00
H2       0.65189    0.68249    -0.08884   1.00
H2       0.47454    0.43858    0.04211   1.00
H2       0.66110    0.61046    -0.09268   1.00
H2       0.55991    0.48854    0.03413   1.00
H2       0.58700    0.60113    -0.08091   1.00
C4       0.18698    0.36165    0.01471   1.00
C4       0.16032    0.30475    0.00119   1.00
C3       0.17249    0.41572    0.01249   1.00
C3       0.11173    0.29432    -0.01416   1.00
C3       0.22996    0.36552    0.03116   1.00
C3       0.18244    0.25584    0.00288   1.00
C2       0.23814    0.47507    0.04264   1.00
C2       0.10888    0.19153    -0.02681   1.00
C3       0.19694    0.47057    0.02606   1.00
C3       0.08698    0.23968    -0.02781   1.00
C3       0.25351    0.42205    0.04471   1.00
C3       0.15628    0.20111    -0.01140   1.00
H1       0.14417    0.41762    0.00081   1.00
H1       0.09199    0.32567    -0.01586   1.00
C5       0.24867    0.31409    0.03368   1.00
C5       0.22910    0.26204    0.01856   1.00
H1       0.18443    0.50780    0.02367   1.00
H1       0.05221    0.23516    -0.03859   1.00
H1       0.28379    0.42635    0.05666   1.00
H1       0.17116    0.16558    -0.01078   1.00
C6       0.28810    0.31495    0.05233   1.00
C6       0.25762    0.21418    0.01883   1.00
H2       0.26631    0.32560    0.06562   1.00
H2       0.27188    0.20874    0.00345   1.00
H2       0.27983    0.26448    0.05586   1.00
H2       0.30645    0.23659    0.02660   1.00
C6       0.36666    0.36591    0.05057   1.00
C6       0.20795    0.14323    0.02864   1.00
H2       0.37533    0.41417    0.04419   1.00
H2       0.15621    0.12477    0.02302   1.00
C6       0.41027    0.38240    0.07038   1.00
C6       0.22503    0.08476    0.02573   1.00
H2       0.38718    0.34537    0.03937   1.00
H2       0.20557    0.15122    0.04489   1.00
C6       0.39168    0.42183    0.08597   1.00
C6       0.21872    0.06256    0.00321   1.00
C6       0.40198    0.31685    0.08045   1.00
C6       0.29748    0.10592    0.03354   1.00
C6       0.48660    0.42857    0.06475   1.00
C6       0.17303    0.02176    0.03814   1.00
H2       0.39595    0.46787    0.07923   1.00
H2       0.16844    0.04834    -0.00286   1.00
H2       0.33977    0.39069    0.09155   1.00
H2       0.25678    0.10328    -0.00623   1.00
H2       0.42550    0.43721    0.09911   1.00
H2       0.22606    0.01871    0.00154   1.00
H2       0.43622    0.32922    0.09340   1.00
H2       0.30703    0.06326    0.03278   1.00
H2       0.35009    0.28462    0.08596   1.00
H2       0.33636    0.14716    0.02440   1.00
H2       0.41339    0.28739    0.06966   1.00
H2       0.30375    0.12315    0.04925   1.00
H2       0.49540    0.47602    0.05776   1.00
H2       0.12095    0.00426    0.03308   1.00
H2       0.51917    0.44189    0.07814   1.00
H2       0.18260    -0.02071   0.03649   1.00
H2       0.50321    0.40296    0.05407   1.00
H2       0.17599    0.03383    0.05427   1.00
C4       0.17295    0.81207    0.01499   1.00
C4       0.14225    0.83814    0.00143   1.00
C3       0.24463    0.83767    0.01545   1.00
C3       0.18149    0.89621    -0.01108   1.00
C3       0.13116    0.75827    0.02871   1.00
C3       0.06959    0.80562    0.00016   1.00
C2       0.23546    0.76168    0.04309   1.00
C2       0.08024    0.88891    -0.02672   1.00
C3       0.27509    0.81357    0.02912   1.00
C3       0.15157    0.92070    -0.02481   1.00
C3       0.16421    0.73541    0.04247   1.00
C3       0.04112    0.83193    -0.01410   1.00
H1       0.27733    0.87432    0.00572   1.00
H1       0.23328    0.92329    -0.01054   1.00
C5       0.05843    0.72848    0.02838   1.00
C5       0.02739    0.74871    0.01298   1.00
H1       0.32709    0.83434    0.02873   1.00
H1       0.18270    0.96264    -0.03346   1.00
H1       0.13627    0.69757    0.05255   1.00
H1       -0.01032   0.80989    -0.01554   1.00
C6       0.01550    0.67674    0.04439   1.00
C6       -0.04915   0.71034    0.00996   1.00
H2       0.03982    0.69442    0.05913   1.00
H2       -0.06022   0.70266    -0.00622   1.00
H2       -0.03279   0.67516    0.04671   1.00
H2       -0.07217   0.65814    0.01539   1.00
C6       0.00120    0.60294    0.03957   1.00
C6       -0.08564   0.74583    0.02030   1.00
H2       0.04813    0.60527    0.03435   1.00
H2       -0.05684   0.80063    0.01730   1.00
C6       -0.02929   0.54876    0.05698   1.00
C6       -0.16185   0.71954    0.01450   1.00
H2       -0.03356   0.58384    0.02664   1.00
H2       -0.08277   0.74089    0.03671   1.00
C6       0.02185    0.56661    0.07473   1.00
C6       -0.16920   0.73471    -0.00802   1.00
C6       -0.09679   0.54115    0.06524   1.00
C6       -0.20715   0.64206    0.01850   1.00
C6       -0.04488   0.47862    0.04832   1.00
C6       -0.18904   0.75740    0.02780   1.00
H2       0.07048    0.57342    0.06934   1.00
H2       -0.13696   0.78890    -0.01141   1.00
H2       0.03189    0.61340    0.08235   1.00
H2       -0.15490   0.70629    -0.01828   1.00
H2       0.00204    0.52622    0.08612   1.00
H2       -0.22176   0.72052    -0.01154   1.00
H2       -0.12011   0.49991    0.07633   1.00
H2       -0.26083   0.62522    0.01579   1.00
H2       -0.08791   0.58777    0.07276   1.00
H2       -0.19316   0.61269    0.00849   1.00
H2       -0.13321   0.52998    0.05297   1.00
H2       -0.20181   0.62979    0.03415   1.00
H2       0.00136    0.48101    0.04246   1.00
H2       -0.15918   0.81242    0.02539   1.00
H2       -0.06591   0.43908    0.05997   1.00
H2       -0.24210   0.74107    0.02421   1.00
H2       -0.08184   0.46253    0.03597   1.00
H2       -0.18647   0.74756    0.04389   1.00
C4       0.17010    0.36022    0.51526   1.00
C4       0.14277    0.30423    0.50139   1.00
C3       0.12807    0.37953    0.52615   1.00
C3       0.07132    0.25936    0.49904   1.00
C3       0.24212    0.39900    0.51852   1.00
C3       0.18787    0.29181    0.48929   1.00
C2       0.22500    0.47132    0.54405   1.00
C2       0.08736    0.19301    0.47263   1.00
C3       0.15451    0.43315    0.54020   1.00
C3       0.04433    0.20563    0.48504   1.00
C3       0.26698    0.45298    0.53303   1.00
C3       0.15832    0.23677    0.47514   1.00
H1       0.07671    0.35581    0.52415   1.00
H1       0.03621    0.26362    0.50757   1.00
C5       0.28727    0.38380    0.50736   1.00
C5       0.26033    0.33349    0.49159   1.00
H1       0.12146    0.44436    0.54763   1.00
H1       -0.00769   0.17526    0.48403   1.00
H1       0.31782    0.48142    0.53587   1.00
H1       0.18871    0.22663    0.46617   1.00
C6       0.36250    0.42041    0.51251   1.00
C6       0.30734    0.32439    0.47721   1.00
H2       0.36838    0.42272    0.52895   1.00
H2       0.28791    0.31904    0.46180   1.00
H2       0.38611    0.39062    0.50823   1.00
H2       0.35670    0.37061    0.47600   1.00
C6       0.40342    0.49291    0.50262   1.00
C6       0.31840    0.26361    0.48318   1.00
H2       0.37481    0.51973    0.50433   1.00
H2       0.26951    0.21933    0.48732   1.00
C6       0.47774    0.54127    0.51040   1.00
C6       0.35325    0.23982    0.46718   1.00
H2       0.40556    0.48594    0.48630   1.00
H2       0.34888    0.27792    0.49705   1.00
C6       0.47845    0.56269    0.53279   1.00
C6       0.30775    0.20832    0.44817   1.00
C6       0.52272    0.50784    0.50833   1.00
C6       0.42370    0.29924    0.46054   1.00
C6       0.51028    0.60713    0.49732   1.00
C6       0.36449    0.18381    0.47695   1.00
H2       0.44623    0.58548    0.53482   1.00
H2       0.25721    0.16690    0.45238   1.00
H2       0.46009    0.51925    0.54301   1.00
H2       0.30119    0.24614    0.43982   1.00
H2       0.52995    0.60004    0.53762   1.00
H2       0.33029    0.18763    0.43775   1.00
H2       0.57555    0.54368    0.51242   1.00
H2       0.44966    0.28114    0.45052   1.00
H2       0.50475    0.46378    0.51831   1.00
H2       0.41827    0.33803    0.45232   1.00
H2       0.52196    0.49098    0.49278   1.00
H2       0.45626    0.32325    0.47369   1.00
H2       0.48080    0.63317    0.49842   1.00
H2       0.31610    0.14024    0.48173   1.00
H2       0.56221    0.64282    0.50227   1.00
H2       0.38837    0.16520    0.46629   1.00
H2       0.51251    0.59549    0.48137   1.00
H2       0.39745    0.20338    0.49025   1.00
C4       0.63892    0.81238    0.51492   1.00
C4       0.69416    0.84091    0.50079   1.00
C3       0.63575    0.76974    0.53127   1.00
C3       0.75336    0.83474    0.50324   1.00
C3       0.58426    0.82641    0.51284   1.00
C3       0.69099    0.87725    0.48347   1.00
C2       0.52892    0.75739    0.54409   1.00
C2       0.80441    0.89568    0.47170   1.00
C3       0.58267    0.74330    0.54549   1.00
C3       0.80671    0.86094    0.48911   1.00
C3       0.53134    0.79881    0.52770   1.00
C3       0.74622    0.90283    0.46938   1.00
H1       0.67155    0.75573    0.53335   1.00
H1       0.76025    0.81156    0.51549   1.00
C5       0.58318    0.86665    0.49619   1.00
C5       0.63401    0.88760    0.48063   1.00
H1       0.58349    0.71309    0.55698   1.00
H1       0.84789    0.85456    0.49171   1.00
H1       0.49185    0.80804    0.52681   1.00
H1       0.74561    0.92854    0.45682   1.00
C6       0.52897    0.88711    0.49539   1.00
C6       0.62785    0.91971    0.46119   1.00
H2       0.52315    0.90348    0.51043   1.00
H2       0.64037    0.89752    0.44839   1.00
H2       0.54562    0.93334    0.48657   1.00
H2       0.57518    0.90487    0.45792   1.00
C6       0.45918    0.82969    0.48676   1.00
C6       0.67198    0.99950    0.46121   1.00
H2       0.44684    0.78070    0.49348   1.00
H2       0.72258    1.01515    0.46733   1.00
C6       0.39558    0.83897    0.48937   1.00
C6       0.68168    1.03717    0.44051   1.00
H2       0.46611    0.82445    0.47059   1.00
H2       0.64895    1.01876    0.47198   1.00
C6       0.37544    0.83591    0.51200   1.00
C6       0.72394    1.02097    0.42530   1.00
C6       0.40792    0.90699    0.48002   1.00
C6       0.61234    1.01880    0.43074   1.00
C6       0.33419    0.77974    0.47818   1.00
C6       0.72146    1.11524    0.44445   1.00
H2       0.36745    0.78893    0.51914   1.00
H2       0.77279    1.03235    0.43188   1.00
H2       0.41472    0.87868    0.52055   1.00
H2       0.69696    0.96747    0.42088   1.00
H2       0.32837    0.83767    0.51357   1.00
H2       0.73445    1.05105    0.41147   1.00
H2       0.36173    0.91073    0.48063   1.00
H2       0.61964    1.04895    0.41708   1.00
H2       0.44761    0.95052    0.48826   1.00
H2       0.58422    0.96520    0.42638   1.00
H2       0.42358    0.91108    0.46420   1.00
H2       0.58099    1.02839    0.44130   1.00
H2       0.32283    0.73041    0.48436   1.00
H2       0.77126    1.13106    0.45117   1.00
H2       0.28829    0.78373    0.47969   1.00
H2       0.72992    1.14385    0.43038   1.00
H2       0.34476    0.78000    0.46202   1.00
H2       0.69350    1.13011    0.45478   1.00
C4       0.18772    0.82670    0.51494   1.00
C4       0.15917    0.85343    0.50083   1.00
C3       0.23146    0.86656    0.53106   1.00
C3       0.16648    0.91935    0.50308   1.00
C3       0.17257    0.75759    0.51309   1.00
C3       0.12163    0.81338    0.48373   1.00
C2       0.24278    0.77172    0.54410   1.00
C2       0.10434    0.90889    0.47176   1.00
C3       0.25794    0.83994    0.54527   1.00
C3       0.14025    0.94648    0.48896   1.00
C3       0.20026    0.73231    0.52794   1.00
C3       0.09606    0.84304    0.46964   1.00
H1       0.24627    0.91664    0.53295   1.00
H1       0.19057    0.94986    0.51517   1.00
C5       0.13117    0.71581    0.49668   1.00
C5       0.11013    0.74555    0.48111   1.00
H1       0.28896    0.87125    0.55658   1.00
H1       0.14749    0.99445    0.49141   1.00
H1       0.19026    0.68331    0.52721   1.00
H1       0.06951    0.81633    0.45722   1.00
C6       0.10961    0.64085    0.49614   1.00
C6       0.07669    0.70659    0.46187   1.00
H2       0.09376    0.61946    0.51130   1.00
H2       0.09864    0.74060    0.44891   1.00
H2       0.06285    0.61137    0.48755   1.00
H2       0.09063    0.66805    0.45865   1.00
C6       0.16593    0.62702    0.48738   1.00
C6       -0.00301   0.67196    0.46222   1.00
H2       0.21544    0.66347    0.49385   1.00
H2       -0.01765   0.70774    0.46828   1.00
C6       0.15565    0.55382    0.49022   1.00
C6       -0.04185   0.64341    0.44171   1.00
H2       0.17052    0.63843    0.47116   1.00
H2       -0.02227   0.63015    0.47316   1.00
C6       0.15953    0.53763    0.51288   1.00
C6       -0.02557   0.70136    0.42630   1.00
C6       0.08683    0.49838    0.48123   1.00
C6       -0.02494   0.59127    0.43203   1.00
C6       0.21380    0.55013    0.47886   1.00
C6       -0.11969   0.60629    0.44598   1.00
H2       0.20710    0.57648    0.51977   1.00
H2       -0.03591   0.73964    0.43280   1.00
H2       0.11748    0.53521    0.52157   1.00
H2       0.02770    0.72700    0.42164   1.00
H2       0.15706    0.48851    0.51459   1.00
H2       -0.05640   0.68147    0.41261   1.00
H2       0.08233    0.44814    0.48198   1.00
H2       -0.05590   0.56808    0.41852   1.00
H2       0.04401    0.49562    0.48960   1.00
H2       0.02840    0.61584    0.42744   1.00
H2       0.08218    0.50936    0.46538   1.00
H2       -0.03461   0.55065    0.44272   1.00
H2       0.26363    0.58789    0.48479   1.00
H2       -0.13449   0.64113    0.45266   1.00
H2       0.20909    0.49998    0.48052   1.00
H2       -0.14908   0.58579    0.43206   1.00
H2       0.21291    0.55977    0.46267   1.00
H2       -0.13463   0.56386    0.45648   1.00
C4       0.37026    0.16984    0.98815   1.00
C4       0.31523    0.13855    1.00230   1.00
C3       0.42234    0.23952    0.98971   1.00
C3       0.31229    0.17252    1.02014   1.00
C3       0.37410    0.13076    0.97170   1.00
C3       0.26067    0.07068    0.99873   1.00
C2       0.48337    0.23228    0.96012   1.00
C2       0.20234    0.07659    1.03041   1.00
C3       0.47740    0.26981    0.97621   1.00
C3       0.25747    0.14273    1.03373   1.00
C3       0.43121    0.16341    0.95834   1.00
C3       0.20560    0.04231    1.01289   1.00
H1       0.42186    0.27107    1.00060   1.00
H1       0.35020    0.21994    1.02402   1.00
C5       0.32166    0.06118    0.96884   1.00
C5       0.26219    0.03286    0.98149   1.00
H1       0.51344    0.32022    0.97820   1.00
H1       0.25826    0.17001    1.04628   1.00
H1       0.43597    0.13717    0.94654   1.00
H1       0.16566    -0.00563   1.01080   1.00
C6       0.33008    0.01839    0.95270   1.00
C6       0.20085    -0.03598   0.97673   1.00
H2       0.38213    0.02763    0.95319   1.00
H2       0.15466    -0.03285   0.97856   1.00
H2       0.30081    -0.03569   0.95622   1.00
H2       0.19853    -0.04854   0.96074   1.00
C6       0.31030    0.03040    0.93092   1.00
C6       0.19812    -0.09547   0.98962   1.00
H2       0.33167    0.08504    0.92836   1.00
H2       0.21030    -0.07934   1.00543   1.00
C6       0.33106    0.00089    0.91254   1.00
C6       0.13009    -0.16566   0.98935   1.00
H2       0.25504    0.00880    0.93058   1.00
H2       0.23926    -0.10366   0.98440   1.00
C6       0.40960    0.03700    0.90996   1.00
C6       0.07094    -0.16086   0.99958   1.00
C6       0.30220    -0.07692   0.91468   1.00
C6       0.10897    -0.19327   0.96748   1.00
C6       0.30115    0.01334    0.89286   1.00
C6       0.14104    -0.21809   1.00154   1.00
H2       0.43169    0.09218    0.90874   1.00
H2       0.08469    -0.14046   1.01495   1.00
H2       0.43367    0.02685    0.92275   1.00
H2       0.05767    -0.12795   0.99106   1.00
H2       0.42342    0.01943    0.89631   1.00
H2       0.02507    -0.21091   1.00058   1.00
H2       0.31278    -0.09780   0.90114   1.00
H2       0.06427    -0.24434   0.96755   1.00
H2       0.32520    -0.08820   0.92754   1.00
H2       0.09610    -0.16061   0.95862   1.00
H2       0.24711    -0.10343   0.91694   1.00
H2       0.15029    -0.19580   0.95978   1.00
H2       0.32052    0.06771    0.89051   1.00
H2       0.15539    -0.20134   1.01720   1.00
H2       0.31469    -0.00604   0.87954   1.00
H2       0.09468    -0.26795   1.00190   1.00
H2       0.24561    -0.01211   0.89358   1.00
H2       0.18134    -0.22478   0.99481   1.00
C4       0.81315    0.63818    0.98535   1.00
C4       0.84145    0.69305    0.99960   1.00
C3       0.78161    0.64116    0.96697   1.00
C3       0.84662    0.75727    0.99553   1.00
C3       0.81596    0.57759    0.98938   1.00
C3       0.86586    0.68431    1.01873   1.00
C2       0.75889    0.52862    0.95603   1.00
C2       0.89559    0.80293    1.02882   1.00
C3       0.75558    0.58826    0.95269   1.00
C3       0.87253    0.81049    1.00970   1.00
C3       0.78919    0.52504    0.97440   1.00
C3       0.89153    0.73964    1.03279   1.00
H1       0.77575    0.68159    0.96337   1.00
H1       0.83239    0.76803    0.98203   1.00
C5       0.84451    0.57045    1.00801   1.00
C5       0.86463    0.62183    1.02337   1.00
H1       0.73369    0.59365    0.93970   1.00
H1       0.87465    0.85547    1.00587   1.00
H1       0.79068    0.48138    0.97666   1.00
H1       0.90892    0.73520    1.04660   1.00
C6       0.85375    0.50930    1.01112   1.00
C6       0.88380    0.61060    1.04444   1.00
H2       0.87428    0.50021    0.99728   1.00
H2       0.86011    0.62773    1.05560   1.00
H2       0.89409    0.52003    1.02195   1.00
H2       0.86041    0.55668    1.04805   1.00
C6       0.78686    0.44387    1.01811   1.00
C6       0.96276    0.64526    1.04774   1.00
H2       0.74380    0.43823    1.00910   1.00
H2       0.98782    0.69678    1.04141   1.00
C6       0.78605    0.37436    1.01745   1.00
C6       0.98894    0.65014    1.06999   1.00
H2       0.77602    0.45243    1.03364   1.00
H2       0.98118    0.61739    1.03866   1.00
C6       0.79018    0.35285    0.99539   1.00
C6       0.97440    0.69818    1.08319   1.00
C6       0.84506    0.37707    1.03007   1.00
C6       0.95675    0.57909    1.08020   1.00
C6       0.71775    0.31825    1.02668   1.00
C6       1.06741    0.68034    1.06943   1.00
H2       0.74982    0.35153    0.98599   1.00
H2       0.99553    0.74849    1.07622   1.00
H2       0.83889    0.38796    0.98838   1.00
H2       0.91990    0.67782    1.08527   1.00
H2       0.78482    0.30222    0.99499   1.00
H2       0.99697    0.70497    1.09824   1.00
H2       0.84118    0.32708    1.03071   1.00
H2       0.97893    0.58243    1.09515   1.00
H2       0.89437    0.41250    1.02340   1.00
H2       0.90200    0.55751    1.08224   1.00
H2       0.84418    0.39349    1.04557   1.00
H2       0.96502    0.54385    1.07099   1.00
H2       0.67431    0.31372    1.01816   1.00
H2       1.09276    0.73097    1.06253   1.00
H2       0.71456    0.26852    1.02643   1.00
H2       1.08821    0.68518    1.08467   1.00
H2       0.71245    0.32984    1.04241   1.00
H2       1.08089    0.64791    1.06065   1.00
C4       0.82672    0.18773    0.98505   1.00
C4       0.85345    0.15918    0.99917   1.00
C3       0.86663    0.23160    0.96897   1.00
C3       0.91944    0.16663    0.99694   1.00
C3       0.75756    0.17245    0.98688   1.00
C3       0.81334    0.12150    1.01624   1.00
C2       0.77174    0.24280    0.95590   1.00
C2       0.90891    0.10434    1.02824   1.00
C3       0.84000    0.25809    0.95476   1.00
C3       0.94657    0.14039    1.01106   1.00
C3       0.73229    0.20015    0.97203   1.00
C3       0.84300    0.09592    1.03033   1.00
H1       0.91673    0.24651    0.96709   1.00
H1       0.94999    0.19082    0.98486   1.00
C5       0.71573    0.13091    1.00326   1.00
C5       0.74545    0.10985    1.01884   1.00
H1       0.87135    0.28921    0.94347   1.00
H1       0.99458    0.14774    1.00863   1.00
H1       0.68325    0.19006    0.97274   1.00
H1       0.81624    0.06928    1.04273   1.00
C6       0.64073    0.10922    1.00377   1.00
C6       0.70640    0.07626    1.03805   1.00
H2       0.61944    0.09344    0.98860   1.00
H2       0.74034    0.09818    1.05103   1.00
H2       0.61127    0.06240    1.01234   1.00
H2       0.66779    0.09009    1.04126   1.00
C6       0.62673    0.16540    1.01255   1.00
C6       0.67190    -0.00343   1.03766   1.00
H2       0.66315    0.21497    1.00610   1.00
H2       0.70779    -0.01795   1.03160   1.00
C6       0.55349    0.15501    1.00968   1.00
C6       0.64328    -0.04240   1.05814   1.00
H2       0.63805    0.16991    1.02877   1.00
H2       0.63015    -0.02269   1.02670   1.00
C6       0.53740    0.15898    0.98701   1.00
C6       0.70117    -0.02612   1.07358   1.00
C6       0.49808    0.08609    1.01863   1.00
C6       0.59100    -0.02568   1.06782   1.00
C6       0.54962    0.21302    1.02106   1.00
C6       0.60631    -0.12022   1.05383   1.00
H2       0.57624    0.20662    0.98015   1.00
H2       0.73954    -0.03633   1.06709   1.00
H2       0.53512    0.11702    0.97831   1.00
H2       0.72670    0.02712    1.07826   1.00
H2       0.48825    0.15643    0.98529   1.00
H2       0.68124    -0.05704   1.08725   1.00
H2       0.44780    0.08150    1.01786   1.00
H2       0.56777    -0.05673   1.08130   1.00
H2       0.49545    0.04336    1.01024   1.00
H2       0.61547    0.02763    1.07243   1.00
H2       0.50899    0.08137    1.03447   1.00
H2       0.55042    -0.03535   1.05710   1.00
H2       0.58735    0.26292    1.01516   1.00
H2       0.64125    -0.13489   1.04716   1.00
H2       0.49944    0.20823    1.01938   1.00
H2       0.58577    -0.14970   1.06774   1.00
H2       0.55918    0.21206    1.03724   1.00
H2       0.56392    -0.13516   1.04332   1.00
C4       0.49257    0.97197    0.81851   1.00
C4       0.52298    1.02884    0.83205   1.00
C3       0.42261    0.92048    0.81988   1.00
C3       0.48411    1.04202    0.84647   1.00
C3       0.53293    0.96546    0.80295   1.00
C3       0.59492    1.07488    0.83132   1.00
C2       0.43020    0.85872    0.79053   1.00
C2       0.58485    1.14191    0.86010   1.00
C3       0.39218    0.86572    0.80627   1.00
C3       0.51402    1.09659    0.86015   1.00
C3       0.49990    0.90913    0.78933   1.00
C3       0.62345    1.12962    0.84559   1.00
H1       0.39130    0.92046    0.83093   1.00
H1       0.43252    1.01285    0.84744   1.00
C5       0.60431    1.01414    0.80135   1.00
C5       0.63631    1.06590    0.81656   1.00
H1       0.34141    0.83043    0.80802   1.00
H1       0.48322    1.10316    0.87023   1.00
H1       0.52679    0.90303    0.77798   1.00
H1       0.67446    1.16315    0.84564   1.00
C6       0.64470    1.01073    0.78353   1.00
C6       0.71314    1.11057    0.81738   1.00
H2       0.61494    1.00157    0.76971   1.00
H2       0.72990    1.11516    0.83308   1.00
H2       0.68918    1.06008    0.78036   1.00
H2       0.73863    1.08585    0.81040   1.00
C6       0.66801    0.95669    0.78639   1.00
C6       0.73968    1.18216    0.80729   1.00
H2       0.62571    0.90950    0.79244   1.00
H2       0.70766    1.20319    0.81202   1.00
C6       0.69658    0.93789    0.76735   1.00
C6       0.81579    1.23781    0.81114   1.00
H2       0.70705    0.97549    0.79821   1.00
H2       0.73191    1.17437    0.79093   1.00
C6       0.64072    0.90062    0.75100   1.00
C6       0.82869    1.25995    0.83373   1.00
C6       0.75763    1.00177    0.75780   1.00
C6       0.86542    1.21289    0.80463   1.00
C6       0.72199    0.88867    0.77408   1.00
C6       0.83236    1.30181    0.79833   1.00
H2       0.59640    0.85585    0.75735   1.00
H2       0.79366    1.27679    0.83889   1.00
H2       0.62347    0.93383    0.74467   1.00
H2       0.82205    1.21834    0.84352   1.00
H2       0.65984    0.88356    0.73843   1.00
H2       0.88057    1.30202    0.83600   1.00
H2       0.78023    0.98760    0.74546   1.00
H2       0.91838    1.25366    0.80602   1.00
H2       0.74152    1.03604    0.75155   1.00
H2       0.85909    1.17073    0.81414   1.00
H2       0.79711    1.02975    0.76911   1.00
H2       0.85644    1.19565    0.78890   1.00
H2       0.68055    0.84225    0.78075   1.00
H2       0.79913    1.32194    0.80249   1.00
H2       0.74206    0.87367    0.76125   1.00
H2       0.88498    1.34240    0.80061   1.00
H2       0.76255    0.91260    0.78534   1.00
H2       0.82554    1.28976    0.78217   1.00
C4       0.02756    0.52126    0.81834   1.00
C4       -0.02922   0.49518    0.83190   1.00
C3       0.07365    0.49568    0.81789   1.00
C3       -0.04803   0.43714    0.84441   1.00
C3       0.03955    0.57505    0.80461   1.00
C3       -0.06937   0.52770    0.83316   1.00
C2       0.14045    0.57165    0.79024   1.00
C2       -0.14200   0.44442    0.86005   1.00
C3       0.12820    0.51978    0.80422   1.00
C3       -0.10245   0.41264    0.85814   1.00
C3       0.09546    0.59790    0.79086   1.00
C3       -0.12415   0.50138    0.84742   1.00
H1       0.06971    0.45904    0.82762   1.00
H1       -0.02331   0.41006    0.84388   1.00
C5       -0.00341   0.60481    0.80494   1.00
C5       -0.05469   0.58458    0.82034   1.00
H1       0.15944    0.49902    0.80460   1.00
H1       -0.11324   0.37072    0.86680   1.00
H1       0.10534    0.63573    0.78078   1.00
H1       -0.15357   0.52341    0.84886   1.00
C6       0.00539    0.65653    0.78892   1.00
C6       -0.09287   0.62294    0.82335   1.00
H2       0.01204    0.63885    0.77419   1.00
H2       -0.09626   0.63064    0.83953   1.00
H2       -0.04133   0.65809    0.78660   1.00
H2       -0.06370   0.67514    0.81792   1.00
C6       0.06487    0.73034    0.79374   1.00
C6       -0.16485   0.58743    0.81301   1.00
H2       0.10948    0.72803    0.79897   1.00
H2       -0.19083   0.53263    0.81602   1.00
C6       0.08855    0.78451    0.77633   1.00
C6       -0.21478   0.61370    0.81881   1.00
H2       0.04921    0.74945    0.80667   1.00
H2       -0.15703   0.59236    0.79661   1.00
C6       0.12185    0.76666    0.75858   1.00
C6       -0.23731   0.59854    0.84133   1.00
C6       0.02865    0.79209    0.76806   1.00
C6       -0.18262   0.69118    0.81481   1.00
C6       0.14308    0.85466    0.78498   1.00
C6       -0.27983   0.57582    0.80551   1.00
H2       0.16367    0.75986    0.76398   1.00
H2       -0.25924   0.54436    0.84473   1.00
H2       0.08511    0.71985    0.75097   1.00
H2       -0.19458   0.62699    0.85159   1.00
H2       0.14241    0.80703    0.74719   1.00
H2       -0.27567   0.61273    0.84484   1.00
H2       0.04656    0.83332    0.75697   1.00
H2       -0.21948   0.70801    0.81751   1.00
H2       -0.00909   0.74546    0.76055   1.00
H2       -0.13927   0.72056    0.82481   1.00
H2       0.00339    0.80327    0.78033   1.00
H2       -0.16501   0.70344    0.79916   1.00
H2       0.18695    0.85229    0.79084   1.00
H2       -0.30498   0.52080    0.80792   1.00
H2       0.16159    0.89419    0.77333   1.00
H2       -0.31657   0.59214    0.80910   1.00
H2       0.12221    0.87076    0.79733   1.00
H2       -0.26742   0.58565    0.78942   1.00
C4       0.47875    0.50631    0.81834   1.00
C4       0.50484    0.47561    0.83190   1.00
C3       0.50421    0.57796    0.81793   1.00
C3       0.56278    0.51486    0.84445   1.00
C3       0.42509    0.46453    0.80458   1.00
C3       0.47244    0.40295    0.83313   1.00
C2       0.42836    0.56882    0.79024   1.00
C2       0.55561    0.41361    0.86005   1.00
C3       0.48011    0.60842    0.80426   1.00
C3       0.58728    0.48493    0.85818   1.00
C3       0.40223    0.49759    0.79083   1.00
C3       0.49875    0.37448    0.84739   1.00
H1       0.54075    0.61064    0.82768   1.00
H1       0.58977    0.56666    0.84395   1.00
C5       0.39544    0.39181    0.80487   1.00
C5       0.41567    0.36075    0.82026   1.00
H1       0.50078    0.66041    0.80467   1.00
H1       0.62913    0.51607    0.86687   1.00
H1       0.36448    0.46965    0.78072   1.00
H1       0.47680    0.32304    0.84880   1.00
C6       0.34387    0.34893    0.78882   1.00
C6       0.37742    0.28419    0.82324   1.00
H2       0.36161    0.37337    0.77410   1.00
H2       0.36963    0.27300    0.83941   1.00
H2       0.34242    0.30071    0.78648   1.00
H2       0.32524    0.26111    0.81777   1.00
C6       0.26997    0.33442    0.79360   1.00
C6       0.41311    0.24790    0.81290   1.00
H2       0.27215    0.38127    0.79885   1.00
H2       0.46788    0.27679    0.81594   1.00
C6       0.21592    0.30396    0.77616   1.00
C6       0.38693    0.17169    0.81866   1.00
H2       0.25084    0.29957    0.80651   1.00
H2       0.40828    0.25088    0.79649   1.00
C6       0.23380    0.35521    0.75843   1.00
C6       0.40198    0.16422    0.84118   1.00
C6       0.20854    0.23658    0.76786   1.00
C6       0.30950    0.12628    0.81461   1.00
C6       0.14568    0.28816    0.78477   1.00
C6       0.42501    0.14472    0.80536   1.00
H2       0.24047    0.40376    0.76385   1.00
H2       0.45613    0.19654    0.84461   1.00
H2       0.28069    0.36541    0.75084   1.00
H2       0.37341    0.17837    0.85143   1.00
H2       0.19350    0.33540    0.74702   1.00
H2       0.38787    0.11167    0.84467   1.00
H2       0.16739    0.21327    0.75675   1.00
H2       0.29275    0.07260    0.81729   1.00
H2       0.25525    0.24562    0.76037   1.00
H2       0.27999    0.14011    0.82460   1.00
H2       0.19735    0.20009    0.78011   1.00
H2       0.29732    0.13169    0.79895   1.00
H2       0.14791    0.33431    0.79065   1.00
H2       0.48001    0.17466    0.80781   1.00
H2       0.10623    0.26714    0.77310   1.00
H2       0.40876    0.09166    0.80893   1.00
H2       0.12957    0.25112    0.79710   1.00
H2       0.41526    0.14737    0.78927   1.00
C4       0.29579    0.15740    0.34489   1.00
C4       0.35032    0.18393    0.33052   1.00
C3       0.25397    0.18715    0.34801   1.00
C3       0.36229    0.23742    0.31680   1.00
C3       0.28186    0.09896    0.35676   1.00
C3       0.39503    0.15647    0.32960   1.00
C2       0.18338    0.10179    0.37324   1.00
C2       0.46259    0.23992    0.30213   1.00
C3       0.19925    0.16009    0.36167   1.00
C3       0.41687    0.26487    0.30309   1.00
C3       0.22542    0.07276    0.37042   1.00
C3       0.45023    0.18612    0.31550   1.00
H1       0.26214    0.23000    0.34062   1.00
H1       0.33140    0.25798    0.31611   1.00
C5       0.32397    0.06851    0.35491   1.00
C5       0.38383    0.10067    0.34244   1.00
H1       0.17087    0.18376    0.36316   1.00
H1       0.42290    0.30359    0.29366   1.00
H1       0.21363    0.03101    0.37902   1.00
H1       0.48337    0.16829    0.31449   1.00
C6       0.30431    0.00255    0.36593   1.00
C6       0.43562    0.07699    0.34284   1.00
H2       0.24965    -0.03193   0.36425   1.00
H2       0.48672    0.12141    0.34325   1.00
H2       0.32505    -0.02601   0.35851   1.00
H2       0.43407    0.05203    0.35707   1.00
C6       0.32645    0.01332    0.38878   1.00
C6       0.42715    0.02809    0.32485   1.00
H2       0.31452    0.05007    0.39564   1.00
H2       0.41871    0.04818    0.31074   1.00
C6       0.29597    -0.05123   0.40274   1.00
C6       0.48632    0.01257    0.32109   1.00
H2       0.38200    0.03772    0.38926   1.00
H2       0.38017    -0.02023   0.32741   1.00
C6       0.21789    -0.08289   0.40552   1.00
C6       0.55263    0.07709    0.31411   1.00
C6       0.31111    -0.10620   0.39434   1.00
C6       0.50153    -0.01711   0.34026   1.00
C6       0.32941    -0.02951   0.42402   1.00
C6       0.46439    -0.04125   0.30389   1.00
H2       0.20541    -0.04503   0.41112   1.00
H2       0.54335    0.09993    0.30078   1.00
H2       0.19068    -0.10312   0.39131   1.00
H2       0.57329    0.11560    0.32600   1.00
H2       0.19792    -0.12489   0.41637   1.00
H2       0.59207    0.06479    0.31018   1.00
H2       0.29397    -0.14882   0.40490   1.00
H2       0.53938    -0.03228   0.33707   1.00
H2       0.28483    -0.12665   0.37999   1.00
H2       0.52165    0.02050    0.35243   1.00
H2       0.36567    -0.08484   0.39184   1.00
H2       0.45533    -0.06179   0.34574   1.00
H2       0.31962    0.00885    0.43073   1.00
H2       0.45371    -0.02250   0.28990   1.00
H2       0.30939    -0.07289   0.43438   1.00
H2       0.50434    -0.05347   0.30061   1.00
H2       0.38454    -0.00798   0.42311   1.00
H2       0.41851    -0.08859   0.30809   1.00
C4       0.86759    0.70320    0.34532   1.00
C4       0.84178    0.64975    0.33059   1.00
C3       0.91265    0.70796    0.36114   1.00
C3       0.86470    0.60161    0.32936   1.00
C3       0.84806    0.75422    0.34445   1.00
C3       0.79115    0.64349    0.31642   1.00
C2       0.92248    0.81313    0.37452   1.00
C2       0.78720    0.53963    0.30147   1.00
C3       0.93959    0.76138    0.37525   1.00
C3       0.83809    0.54799    0.31532   1.00
C3       0.87694    0.80798    0.35903   1.00
C3       0.76508    0.58793    0.30244   1.00
H1       0.92705    0.67242    0.36313   1.00
H1       0.90210    0.60411    0.33848   1.00
C5       0.80062    0.75055    0.32939   1.00
C5       0.76814    0.69210    0.31637   1.00
H1       0.97205    0.76205    0.38624   1.00
H1       0.85658    0.51481    0.31526   1.00
H1       0.86465    0.84546    0.35882   1.00
H1       0.72871    0.58151    0.29222   1.00
C6       0.78606    0.80865    0.32729   1.00
C6       0.70947    0.68072    0.30277   1.00
H2       0.83392    0.85689    0.32820   1.00
H2       0.66973    0.62730    0.30360   1.00
H2       0.76881    0.81114    0.31209   1.00
H2       0.68302    0.70611    0.30859   1.00
C6       0.73262    0.80522    0.34306   1.00
C6       0.73177    0.70402    0.28032   1.00
H2       0.74411    0.79279    0.35803   1.00
H2       0.76671    0.68683    0.27530   1.00
C6       0.72484    0.86982    0.34534   1.00
C6       0.67415    0.68114    0.26401   1.00
H2       0.68297    0.76204    0.33897   1.00
H2       0.76189    0.75967    0.28022   1.00
C6       0.79017    0.93108    0.35427   1.00
C6       0.63567    0.60276    0.26084   1.00
C6       0.70756    0.89099    0.32482   1.00
C6       0.62229    0.70409    0.26970   1.00
C6       0.66539    0.85282    0.36027   1.00
C6       0.70738    0.71487    0.24346   1.00
H2       0.80438    0.91743    0.36861   1.00
H2       0.67103    0.58478    0.25713   1.00
H2       0.83321    0.94848    0.34393   1.00
H2       0.60756    0.57584    0.27438   1.00
H2       0.78260    0.97431    0.35712   1.00
H2       0.59888    0.58783    0.24848   1.00
H2       0.69745    0.93297    0.32683   1.00
H2       0.58520    0.69222    0.25757   1.00
H2       0.74982    0.90796    0.31418   1.00
H2       0.59405    0.67817    0.28335   1.00
H2       0.66255    0.84830    0.31801   1.00
H2       0.64825    0.75893    0.27243   1.00
H2       0.67540    0.83820    0.37511   1.00
H2       0.74403    0.69972    0.23863   1.00
H2       0.65823    0.89662    0.36248   1.00
H2       0.66913    0.70004    0.23151   1.00
H2       0.61746    0.81076    0.35460   1.00
H2       0.73423    0.77038    0.24461   1.00
C4       0.83603    0.13263    0.34525   1.00
C4       0.80851    0.15859    0.33053   1.00
C3       0.79495    0.08488    0.36044   1.00
C3       0.73715    0.13336    0.32862   1.00
C3       0.90727    0.15478    0.34503   1.00
C3       0.85330    0.21174    0.31707   1.00
C2       0.89101    0.07756    0.37441   1.00
C2       0.75302    0.21333    0.30144   1.00
C3       0.82141    0.05786    0.37452   1.00
C3       0.71015    0.16004    0.31460   1.00
C3       0.93213    0.12574    0.35957   1.00
C3       0.82378    0.23777    0.30308   1.00
H1       0.74438    0.06846    0.36196   1.00
H1       0.70206    0.09419    0.33720   1.00
C5       0.95169    0.20491    0.33065   1.00
C5       0.92538    0.23724    0.31770   1.00
H1       0.78904    0.02339    0.38503   1.00
H1       0.65824    0.13980    0.31403   1.00
H1       0.98239    0.13986    0.35980   1.00
H1       0.85401    0.27588    0.29336   1.00
C6       1.02544    0.22244    0.32918   1.00
C6       0.97274    0.29830    0.30489   1.00
H2       1.02776    0.17555    0.32973   1.00
H2       0.95699    0.33648    0.30592   1.00
H2       1.04667    0.24207    0.31427   1.00
H2       1.02380    0.32559    0.31127   1.00
C6       1.07227    0.27478    0.34569   1.00
C6       0.97741    0.27938    0.28230   1.00
H2       1.04657    0.26065    0.36039   1.00
H2       0.92633    0.24368    0.27665   1.00
C6       1.14549    0.28512    0.34854   1.00
C6       1.01235    0.33924    0.26668   1.00
H2       1.07725    0.32412    0.34202   1.00
H2       1.00475    0.25102    0.28216   1.00
C6       1.14306    0.21995    0.35695   1.00
C6       0.97039    0.37561    0.26352   1.00
C6       1.18643    0.30623    0.32845   1.00
C6       1.08575    0.39235    0.27328   1.00
C6       1.18447    0.34313    0.36421   1.00
C6       1.01674    0.30939    0.24590   1.00
H2       1.11353    0.20307    0.37098   1.00
H2       0.91793    0.33928    0.25916   1.00
H2       1.11999    0.17811    0.34612   1.00
H2       0.96878    0.40143    0.27726   1.00
H2       1.19421    0.22911    0.36021   1.00
H2       0.99259    0.41406    0.25160   1.00
H2       1.23890    0.31803    0.33090   1.00
H2       1.11135    0.43121    0.26162   1.00
H2       1.16373    0.26521    0.31732   1.00
H2       1.08528    0.41833    0.28715   1.00
H2       1.18771    0.35120    0.32199   1.00
H2       1.11599    0.36783    0.27603   1.00
H2       1.15800    0.33044    0.37878   1.00
H2       0.96605    0.27200    0.24043   1.00
H2       1.23588    0.35197    0.36683   1.00
H2       1.04043    0.34928    0.23442   1.00
H2       1.18909    0.39096    0.35894   1.00
H2       1.04698    0.28418    0.24705   1.00
C4       0.83339    0.69380    0.84854   1.00
C4       0.80500    0.63717    0.83490   1.00
C3       0.80123    0.73288    0.85261   1.00
C3       0.73921    0.61128    0.82605   1.00
C3       0.89637    0.71286    0.85861   1.00
C3       0.84311    0.60450    0.82977   1.00
C2       0.88902    0.80623    0.87688   1.00
C2       0.74893    0.52480    0.80654   1.00
C3       0.82791    0.78718    0.86642   1.00
C3       0.71206    0.55704    0.81222   1.00
C3       0.92164    0.76824    0.87264   1.00
C3       0.81379    0.54966    0.81554   1.00
H1       0.75755    0.72379    0.84555   1.00
H1       0.70826    0.63041    0.82947   1.00
C5       0.93257    0.67725    0.85448   1.00
C5       0.90841    0.62644    0.83884   1.00
H1       0.80212    0.81317    0.86875   1.00
H1       0.66443    0.54093    0.80632   1.00
H1       0.96602    0.78301    0.88019   1.00
H1       0.83952    0.52546    0.81140   1.00
C6       0.99523    0.69318    0.86681   1.00
C6       0.95125    0.59632    0.83166   1.00
H2       0.98521    0.69751    0.88275   1.00
H2       0.94958    0.59356    0.81515   1.00
H2       1.00423    0.65033    0.86713   1.00
H2       1.00523    0.63069    0.83440   1.00
C6       1.06144    0.75810    0.85918   1.00
C6       0.92992    0.52536    0.84147   1.00
H2       1.05011    0.79878    0.85599   1.00
H2       0.87435    0.49368    0.84141   1.00
C6       1.12564    0.78817    0.87328   1.00
C6       0.95995    0.48260    0.83196   1.00
H2       1.07521    0.74572    0.84455   1.00
H2       0.94429    0.53395    0.85747   1.00
C6       1.11394    0.81723    0.89323   1.00
C6       0.93297    0.45875    0.81013   1.00
C6       1.14628    0.73421    0.87848   1.00
C6       1.03893    0.52315    0.83163   1.00
C6       1.18626    0.84785    0.86198   1.00
C6       0.93711    0.41784    0.84512   1.00
H2       1.09820    0.85471    0.89008   1.00
H2       0.87729    0.43089    0.80980   1.00
H2       1.07468    0.77716    0.90256   1.00
H2       0.95073    0.50171    0.79975   1.00
H2       1.16043    0.84227    0.90231   1.00
H2       0.95039    0.42511    0.80417   1.00
H2       1.19380    0.75691    0.88709   1.00
H2       1.05941    0.49130    0.82633   1.00
H2       1.10727    0.69325    0.88766   1.00
H2       1.05774    0.56683    0.82146   1.00
H2       1.15344    0.71190    0.86469   1.00
H2       1.05922    0.54176    0.84676   1.00
H2       1.17457    0.88781    0.85813   1.00
H2       0.88158    0.38693    0.84568   1.00
H2       1.23230    0.87088    0.87129   1.00
H2       0.95650    0.38600    0.83899   1.00
H2       1.19793    0.83026    0.84793   1.00
H2       0.95581    0.43134    0.86064   1.00
C4       0.29732    0.13194    0.84551   1.00
C4       0.35281    0.15596    0.83152   1.00
C3       0.23750    0.13568    0.84140   1.00
C3       0.34942    0.17870    0.81163   1.00
C3       0.30096    0.10302    0.86443   1.00
C3       0.41440    0.15755    0.83738   1.00
C2       0.18367    0.08035    0.87336   1.00
C2       0.46617    0.20767    0.80357   1.00
C3       0.18221    0.11041    0.85482   1.00
C3       0.40441    0.20410    0.79809   1.00
C3       0.24339    0.07753    0.87763   1.00
C3       0.46935    0.18415    0.82318   1.00
H1       0.23215    0.15753    0.82858   1.00
H1       0.30663    0.17702    0.80616   1.00
C5       0.36103    0.10048    0.86979   1.00
C5       0.41982    0.13266    0.85689   1.00
H1       0.14042    0.11439    0.85093   1.00
H1       0.39883    0.21996    0.78399   1.00
H1       0.24387    0.05618    0.89116   1.00
H1       0.51412    0.18654    0.82684   1.00
C6       0.36135    0.06326    0.88883   1.00
C6       0.48758    0.14136    0.86370   1.00
H2       0.31336    0.01518    0.88983   1.00
H2       0.52802    0.19261    0.85983   1.00
H2       0.39806    0.04577    0.88783   1.00
H2       0.49151    0.14183    0.88014   1.00
C6       0.37575    0.10699    0.90857   1.00
C6       0.50214    0.08551    0.85496   1.00
H2       0.34597    0.13290    0.90827   1.00
H2       0.48875    0.07767    0.83887   1.00
C6       0.36243    0.06931    0.92942   1.00
C6       0.57625    0.09771    0.85720   1.00
H2       0.42901    0.14771    0.90813   1.00
H2       0.46704    0.03718    0.86230   1.00
C6       0.28555    0.01783    0.93269   1.00
C6       0.62818    0.15965    0.84445   1.00
C6       0.40337    0.03155    0.93139   1.00
C6       0.59960    0.10855    0.87965   1.00
C6       0.38581    0.12311    0.94666   1.00
C6       0.57726    0.03370    0.84922   1.00
H2       0.25509    0.04271    0.93107   1.00
H2       0.61255    0.15407    0.82857   1.00
H2       0.26666    -0.02388   0.92182   1.00
H2       0.63320    0.20717    0.85006   1.00
H2       0.27623    -0.00466   0.94782   1.00
H2       0.67874    0.16486    0.84499   1.00
H2       0.39757    0.00959    0.94650   1.00
H2       0.64928    0.11212    0.88120   1.00
H2       0.38564    -0.01004   0.92047   1.00
H2       0.60429    0.15560    0.88561   1.00
H2       0.45754    0.06638    0.92873   1.00
H2       0.56314    0.06630    0.88903   1.00
H2       0.35787    0.15082    0.94609   1.00
H2       0.56182    0.02416    0.83332   1.00
H2       0.37710    0.09916    0.96157   1.00
H2       0.62819    0.03996    0.85034   1.00
H2       0.44010    0.16020    0.94543   1.00
H2       0.54256    -0.01159   0.85790   1.00
C4       0.86754    0.16429    0.84531   1.00
C4       0.84371    0.19567    0.83122   1.00
C3       0.85548    0.09670    0.84260   1.00
C3       0.81253    0.16456    0.81244   1.00
C3       0.90487    0.20110    0.86287   1.00
C3       0.85101    0.26071    0.83583   1.00
C2       0.91858    0.10197    0.87325   1.00
C2       0.79248    0.25754    0.80318   1.00
C3       0.88045    0.06651    0.85607   1.00
C3       0.78735    0.19428    0.79887   1.00
C3       0.92974    0.16866    0.87615   1.00
C3       0.82435    0.28907    0.82165   1.00
H1       0.82750    0.06663    0.83086   1.00
H1       0.80756    0.11945    0.80783   1.00
C5       0.91616    0.26824    0.86685   1.00
C5       0.88453    0.29584    0.85411   1.00
H1       0.87023    0.01770    0.85323   1.00
H1       0.76516    0.16911    0.78562   1.00
H1       0.95689    0.19337    0.88872   1.00
H1       0.82816    0.33500    0.82446   1.00
C6       0.96183    0.30933    0.88427   1.00
C6       0.88544    0.36105    0.85982   1.00
H2       1.00709    0.30404    0.88434   1.00
H2       0.83501    0.35455    0.85719   1.00
H2       0.98388    0.36381    0.88182   1.00
H2       0.89119    0.37002    0.87608   1.00
C6       0.92468    0.29009    0.90532   1.00
C6       0.94239    0.42549    0.84861   1.00
H2       0.89414    0.23463    0.90667   1.00
H2       0.94341    0.41356    0.83259   1.00
C6       0.96995    0.31788    0.92481   1.00
C6       0.93873    0.49264    0.84979   1.00
H2       0.88791    0.30796    0.90541   1.00
H2       0.99159    0.43599    0.85469   1.00
C6       1.01632    0.28616    0.92759   1.00
C6       0.87528    0.48540    0.83853   1.00
C6       1.01472    0.39662    0.92441   1.00
C6       0.93793    0.51428    0.87203   1.00
C6       0.92239    0.29789    0.94359   1.00
C6       1.00296    0.55070    0.83929   1.00
H2       0.98632    0.23052    0.92760   1.00
H2       0.87375    0.46907    0.82285   1.00
H2       1.05399    0.30165    0.91551   1.00
H2       0.82812    0.44824    0.84589   1.00
H2       1.04413    0.30217    0.94191   1.00
H2       0.87569    0.53378    0.83822   1.00
H2       1.04237    0.41583    0.93866   1.00
H2       0.94031    0.56359    0.87270   1.00
H2       1.05238    0.41322    0.91227   1.00
H2       0.89136    0.47733    0.87974   1.00
H2       0.98343    0.42021    0.92204   1.00
H2       0.98134    0.51835    0.88042   1.00
H2       0.89008    0.24260    0.94471   1.00
H2       1.00560    0.53827    0.82343   1.00
H2       0.95172    0.31583    0.95763   1.00
H2       1.00252    0.59868    0.83960   1.00
H2       0.88926    0.31997    0.94272   1.00
H2       1.04951    0.55923    0.84682   1.00
C4       0.02729    0.50547    0.31824   1.00
C4       -0.02825   0.47856    0.33226   1.00
C3       0.03645    0.46366    0.30389   1.00
C3       -0.08230   0.40954    0.33152   1.00
C3       0.07610    0.57679    0.31837   1.00
C3       -0.03074   0.52162    0.34770   1.00
C2       0.13770    0.56034    0.28920   1.00
C2       -0.13887   0.42319    0.36123   1.00
C3       0.08972    0.49018    0.28974   1.00
C3       -0.13579   0.38249    0.34560   1.00
C3       0.12940    0.60183    0.30363   1.00
C3       -0.08589   0.49199    0.36182   1.00
H1       0.00513    0.41226    0.30332   1.00
H1       -0.08519   0.37650    0.32059   1.00
C5       0.07120    0.62098    0.33301   1.00
C5       0.02068    0.59228    0.34869   1.00
H1       0.09335    0.45737    0.27974   1.00
H1       -0.17307   0.33222    0.34429   1.00
H1       0.16481    0.65231    0.30315   1.00
H1       -0.08917   0.52085    0.37309   1.00
C6       0.11879    0.69727    0.33160   1.00
C6       0.02144    0.63537    0.36636   1.00
H2       0.12264    0.71298    0.31580   1.00
H2       0.01223    0.60642    0.38035   1.00
H2       0.09695    0.72542    0.33863   1.00
H2       0.07214    0.67848    0.36903   1.00
C6       0.19075    0.72125    0.34110   1.00
C6       -0.02995   0.66216    0.36377   1.00
H2       0.20887    0.68678    0.33636   1.00
H2       -0.07873   0.62094    0.35820   1.00
C6       0.24866    0.79593    0.33657   1.00
C6       -0.04469   0.69409    0.38281   1.00
H2       0.18437    0.71501    0.35753   1.00
H2       -0.01068   0.70025    0.35168   1.00
C6       0.26863    0.80613    0.31381   1.00
C6       -0.08237   0.64014    0.39962   1.00
C6       0.22794    0.84884    0.34305   1.00
C6       0.02169    0.75390    0.39168   1.00
C6       0.31296    0.81032    0.34890   1.00
C6       -0.09166   0.72246    0.37631   1.00
H2       0.28247    0.76878    0.30868   1.00
H2       -0.12895   0.59667    0.39375   1.00
H2       0.22691    0.80090    0.30432   1.00
H2       -0.05051   0.62103    0.40579   1.00
H2       0.31214    0.85683    0.31105   1.00
H2       -0.09660   0.66175    0.41222   1.00
H2       0.27035    0.90079    0.34118   1.00
H2       0.01045    0.77890    0.40403   1.00
H2       0.18574    0.84400    0.33385   1.00
H2       0.05464    0.73589    0.39777   1.00
H2       0.21227    0.84185    0.35892   1.00
H2       0.04994    0.79196    0.38004   1.00
H2       0.33018    0.77470    0.34474   1.00
H2       -0.13969   0.68202    0.37011   1.00
H2       0.35508    0.86186    0.34613   1.00
H2       -0.10380   0.74495    0.38915   1.00
H2       0.30248    0.80528    0.36515   1.00
H2       -0.06727   0.76186    0.36473   1.00
C4       0.47898    0.97229    0.31839   1.00
C4       0.50752    1.02756    0.33251   1.00
C3       0.43554    0.96861    0.30221   1.00
C3       0.50053    1.08633    0.33020   1.00
C3       0.49382    0.91814    0.32031   1.00
C3       0.54473    1.02487    0.34967   1.00
C2       0.42393    0.86226    0.28923   1.00
C2       0.56234    1.13785    0.36159   1.00
C3       0.40907    0.91551    0.28800   1.00
C3       0.52675    1.13970    0.34433   1.00
C3       0.46615    0.86519    0.30546   1.00
C3       0.57031    1.08010    0.36376   1.00
H1       0.42095    1.00403    0.30027   1.00
H1       0.47670    1.09289    0.31807   1.00
C5       0.53490    0.91756    0.33678   1.00
C5       0.55591    0.96836    0.35236   1.00
H1       0.37828    0.91596    0.27664   1.00
H1       0.51975    1.18055    0.34183   1.00
H1       0.47594    0.82604    0.30623   1.00
H1       0.59662    1.07981    0.37622   1.00
C6       0.55615    0.86393    0.33740   1.00
C6       0.58898    0.96265    0.37165   1.00
H2       0.57214    0.85832    0.32228   1.00
H2       0.56696    0.97484    0.38457   1.00
H2       0.60276    0.88104    0.34606   1.00
H2       0.57479    0.91012    0.37488   1.00
C6       0.49952    0.79388    0.34613   1.00
C6       0.66871    1.00746    0.37139   1.00
H2       0.45016    0.78103    0.33958   1.00
H2       0.68363    1.05794    0.36531   1.00
C6       0.50952    0.73077    0.34335   1.00
C6       0.70722    1.01758    0.39196   1.00
H2       0.49475    0.80073    0.36233   1.00
H2       0.68797    0.98478    0.36050   1.00
C6       0.50587    0.71068    0.32070   1.00
C6       0.69096    1.05942    0.40731   1.00
C6       0.57813    0.74386    0.35244   1.00
C6       0.68991    0.94846    0.40167   1.00
C6       0.45107    0.66906    0.35466   1.00
C6       0.78513    1.05804    0.38778   1.00
H2       0.45846    0.70217    0.31374   1.00
H2       0.70159    1.10810    0.40079   1.00
H2       0.54813    0.75022    0.31205   1.00
H2       0.63763    1.03197    0.41190   1.00
H2       0.50815    0.66392    0.31903   1.00
H2       0.72159    1.07024    0.42104   1.00
H2       0.58241    0.69799    0.35173   1.00
H2       0.72064    0.95609    0.41521   1.00
H2       0.62114    0.78382    0.34411   1.00
H2       0.63649    0.91986    0.40619   1.00
H2       0.58261    0.75949    0.36828   1.00
H2       0.69955    0.91739    0.39101   1.00
H2       0.40137    0.65718    0.34866   1.00
H2       0.80021    1.10773    0.38109   1.00
H2       0.45558    0.62349    0.35305   1.00
H2       0.81430    1.06682    0.40174   1.00
H2       0.45178    0.67960    0.37084   1.00
H2       0.80005    1.03042    0.37733   1.00
C4       0.49336    0.52104    0.31839   1.00
C4       0.52010    0.49250    0.33250   1.00
C3       0.53322    0.56477    0.30227   1.00
C3       0.58601    0.49979    0.33025   1.00
C3       0.42426    0.50592    0.32024   1.00
C3       0.48006    0.45498    0.34961   1.00
C2       0.43838    0.57611    0.28923   1.00
C2       0.57556    0.43767    0.36158   1.00
C3       0.50660    0.59125    0.28806   1.00
C3       0.61314    0.47356    0.34437   1.00
C3       0.39899    0.53360    0.30539   1.00
C3       0.50971    0.42941    0.36370   1.00
H1       0.58329    0.57957    0.30037   1.00
H1       0.61650    0.52386    0.31815   1.00
C5       0.38249    0.46454    0.33666   1.00
C5       0.41224    0.44350    0.35223   1.00
H1       0.53791    0.62226    0.27674   1.00
H1       0.66110    0.48078    0.34191   1.00
H1       0.34999    0.52362    0.30612   1.00
H1       0.48301    0.40287    0.37612   1.00
C6       0.30753    0.44300    0.33720   1.00
C6       0.37328    0.41009    0.37148   1.00
H2       0.28614    0.42715    0.32205   1.00
H2       0.40731    0.43204    0.38443   1.00
H2       0.27806    0.39625    0.34580   1.00
H2       0.33476    0.42404    0.37469   1.00
C6       0.29374    0.49934    0.34597   1.00
C6       0.33864    0.33039    0.37113   1.00
H2       0.33019    0.54884    0.33948   1.00
H2       0.37441    0.31572    0.36506   1.00
C6       0.22054    0.48908    0.34313   1.00
C6       0.31010    0.29157    0.39164   1.00
H2       0.30516    0.50394    0.36218   1.00
H2       0.29682    0.31112    0.36019   1.00
C6       0.20433    0.49294    0.32047   1.00
C6       0.36806    0.30785    0.40705   1.00
C6       0.16510    0.42027    0.35213   1.00
C6       0.25798    0.30850    0.40133   1.00
C6       0.21688    0.54725    0.35448   1.00
C6       0.27296    0.21372    0.38737   1.00
H2       0.24319    0.54050    0.31357   1.00
H2       0.40632    0.29749    0.40054   1.00
H2       0.20190    0.45088    0.31178   1.00
H2       0.39371    0.36112    0.41170   1.00
H2       0.15522    0.49048    0.31876   1.00
H2       0.34817    0.27702    0.42074   1.00
H2       0.11486    0.41579    0.35138   1.00
H2       0.23479    0.27756    0.41484   1.00
H2       0.16231    0.37744    0.34376   1.00
H2       0.28257    0.36185    0.40591   1.00
H2       0.17609    0.41564    0.36797   1.00
H2       0.21735    0.29884    0.39063   1.00
H2       0.25464    0.59708    0.34855   1.00
H2       0.30778    0.19890    0.38070   1.00
H2       0.16673    0.54255    0.35283   1.00
H2       0.25247    0.18435    0.40130   1.00
H2       0.22653    0.54637    0.37067   1.00
H2       0.23052    0.19879    0.37689   1.00
C4       0.15944    0.30540    0.15182   1.00
C4       0.18990    0.36226    0.16535   1.00
C3       0.08906    0.25485    0.15287   1.00
C3       0.15087    0.37643    0.17944   1.00
C3       0.20015    0.29794    0.13657   1.00
C3       0.26207    0.40726    0.16498   1.00
C2       0.09703    0.19221    0.12382   1.00
C2       0.25180    0.47528    0.19342   1.00
C3       0.05862    0.20013    0.13925   1.00
C3       0.18078    0.43098    0.19313   1.00
C3       0.16711    0.24168    0.12293   1.00
C3       0.29059    0.46201    0.17925   1.00
H1       0.05743    0.25552    0.16369   1.00
H1       0.09916    0.34805    0.18015   1.00
C5       0.27188    0.34561    0.13531   1.00
C5       0.30371    0.39728    0.15056   1.00
H1       0.00756    0.16554    0.14076   1.00
H1       0.14984    0.43829    0.20296   1.00
H1       0.19426    0.23492    0.11180   1.00
H1       0.34175    0.49482    0.17954   1.00
C6       0.31283    0.34128    0.11780   1.00
C6       0.38059    0.44080    0.15176   1.00
H2       0.28403    0.33261    0.10380   1.00
H2       0.39633    0.44513    0.16757   1.00
H2       0.35805    0.39020    0.11477   1.00
H2       0.40571    0.41527    0.14506   1.00
C6       0.33457    0.28620    0.12103   1.00
C6       0.40897    0.51255    0.14160   1.00
H2       0.29137    0.23942    0.12695   1.00
H2       0.37745    0.53448    0.14601   1.00
C6       0.36358    0.26655    0.10227   1.00
C6       0.48519    0.56719    0.14580   1.00
H2       0.37287    0.30440    0.13306   1.00
H2       0.40210    0.50480    0.12522   1.00
C6       0.30852    0.23002    0.08566   1.00
C6       0.49706    0.58935    0.16838   1.00
C6       0.42589    0.32978    0.09293   1.00
C6       0.53415    0.54095    0.13974   1.00
C6       0.38727    0.21630    0.10937   1.00
C6       0.50370    0.63147    0.13286   1.00
H2       0.26335    0.18573    0.09186   1.00
H2       0.46246    0.60712    0.17323   1.00
H2       0.29254    0.26392    0.07909   1.00
H2       0.48903    0.54747    0.17828   1.00
H2       0.32783    0.21235    0.07330   1.00
H2       0.54913    0.63077    0.17087   1.00
H2       0.44868    0.31496    0.08081   1.00
H2       0.58730    0.58104    0.14136   1.00
H2       0.41105    0.36473    0.08644   1.00
H2       0.52643    0.49851    0.14936   1.00
H2       0.46485    0.35726    0.10442   1.00
H2       0.52584    0.52368    0.12401   1.00
H2       0.34490    0.17030    0.11591   1.00
H2       0.47100    0.65251    0.13670   1.00
H2       0.40758    0.20069    0.09674   1.00
H2       0.55647    0.67138    0.13538   1.00
H2       0.42722    0.23967    0.12084   1.00
H2       0.49767    0.61939    0.11670   1.00
C4       0.70259    0.86812    0.15446   1.00
C4       0.64918    0.84270    0.16920   1.00
C3       0.70224    0.90481    0.13694   1.00
C3       0.59554    0.85829    0.16859   1.00
C3       0.75884    0.85679    0.15707   1.00
C3       0.64865    0.80009    0.18528   1.00
C2       0.81218    0.92243    0.12515   1.00
C2       0.53934    0.78863    0.19842   1.00
C3       0.75546    0.93148    0.12277   1.00
C3       0.54206    0.83187    0.18267   1.00
C3       0.81219    0.88512    0.14235   1.00
C3       0.59306    0.77391    0.19926   1.00
H1       0.66297    0.91295    0.13372   1.00
H1       0.59368    0.88997    0.15800   1.00
C5       0.76064    0.81776    0.17395   1.00
C5       0.70279    0.78494    0.18718   1.00
H1       0.75229    0.95771    0.11050   1.00
H1       0.50477    0.84482    0.18136   1.00
H1       0.85325    0.87855    0.14376   1.00
H1       0.59064    0.74307    0.21082   1.00
C6       0.82374    0.81236    0.17770   1.00
C6       0.69784    0.73404    0.20295   1.00
H2       0.86880    0.86241    0.17565   1.00
H2       0.64633    0.69023    0.20284   1.00
H2       0.82834    0.80209    0.19355   1.00
H2       0.72795    0.71070    0.19875   1.00
C6       0.82682    0.75689    0.16424   1.00
C6       0.71949    0.76556    0.22471   1.00
H2       0.81244    0.76065    0.14867   1.00
H2       0.69700    0.79751    0.22790   1.00
C6       0.89600    0.75703    0.16347   1.00
C6       0.70225    0.71514    0.24291   1.00
H2       0.78729    0.70695    0.16962   1.00
H2       0.77454    0.80048    0.22454   1.00
C6       0.95274    0.82204    0.15296   1.00
C6       0.62420    0.67076    0.24627   1.00
C6       0.92026    0.75098    0.18494   1.00
C6       0.73289    0.66802    0.23987   1.00
C6       0.88549    0.69458    0.15086   1.00
C6       0.73358    0.75742    0.26252   1.00
H2       0.93673    0.82839    0.13788   1.00
H2       0.60084    0.70253    0.24814   1.00
H2       0.96573    0.86772    0.16172   1.00
H2       0.59935    0.63656    0.23353   1.00
H2       0.99933    0.81948    0.15124   1.00
H2       0.61283    0.63922    0.25982   1.00
H2       0.96585    0.74620    0.18413   1.00
H2       0.72479    0.63651    0.25326   1.00
H2       0.93290    0.79599    0.19403   1.00
H2       0.70913    0.63379    0.22705   1.00
H2       0.88066    0.70636    0.19284   1.00
H2       0.78762    0.69799    0.23705   1.00
H2       0.86898    0.69674    0.13545   1.00
H2       0.71305    0.79113    0.26549   1.00
H2       0.93263    0.69270    0.14976   1.00
H2       0.72250    0.72438    0.27572   1.00
H2       0.84691    0.64693    0.15775   1.00
H2       0.78890    0.78886    0.26125   1.00
C4       0.13263    0.83603    0.15475   1.00
C4       0.15859    0.80851    0.16947   1.00
C3       0.08487    0.79495    0.13957   1.00
C3       0.13335    0.73715    0.17138   1.00
C3       0.15480    0.90727    0.15497   1.00
C3       0.21175    0.85330    0.18293   1.00
C2       0.07756    0.89101    0.12559   1.00
C2       0.21333    0.75302    0.19856   1.00
C3       0.05785    0.82141    0.12548   1.00
C3       0.16003    0.71015    0.18540   1.00
C3       0.12575    0.93213    0.14043   1.00
C3       0.23778    0.82379    0.19692   1.00
H1       0.06845    0.74438    0.13805   1.00
H1       0.09417    0.70206    0.16280   1.00
C5       0.20493    0.95170    0.16934   1.00
C5       0.23726    0.92539    0.18229   1.00
H1       0.02338    0.78904    0.11497   1.00
H1       0.13979    0.65824    0.18598   1.00
H1       0.13988    0.98239    0.14020   1.00
H1       0.27590    0.85401    0.20664   1.00
C6       0.22248    1.02545    0.17082   1.00
C6       0.29833    0.97275    0.19510   1.00
H2       0.17559    1.02778    0.17026   1.00
H2       0.33650    0.95699    0.19407   1.00
H2       0.24211    1.04668    0.18573   1.00
H2       0.32562    1.02380    0.18872   1.00
C6       0.27481    1.07227    0.15430   1.00
C6       0.27943    0.97743    0.21769   1.00
H2       0.26067    1.04656    0.13960   1.00
H2       0.24372    0.92635    0.22334   1.00
C6       0.28516    1.14549    0.15144   1.00
C6       0.33930    1.01237    0.23331   1.00
H2       0.32415    1.07724    0.15797   1.00
H2       0.25107    1.00477    0.21784   1.00
C6       0.21999    1.14307    0.14304   1.00
C6       0.37565    0.97040    0.23647   1.00
C6       0.30628    1.18644    0.17154   1.00
C6       0.39241    1.08577    0.22670   1.00
C6       0.34316    1.18445    0.13578   1.00
C6       0.30945    1.01678    0.25409   1.00
H2       0.20310    1.11353    0.12902   1.00
H2       0.33932    0.91795    0.24083   1.00
H2       0.17815    1.12001    0.15388   1.00
H2       0.40146    0.96878    0.22273   1.00
H2       0.22915    1.19422    0.13978   1.00
H2       0.41411    0.99261    0.24839   1.00
H2       0.31809    1.23891    0.16908   1.00
H2       0.43127    1.11136    0.23836   1.00
H2       0.26526    1.16375    0.18267   1.00
H2       0.41838    1.08528    0.21284   1.00
H2       0.35125    1.18771    0.17800   1.00
H2       0.36789    1.11601    0.22396   1.00
H2       0.33046    1.15798    0.12121   1.00
H2       0.27207    0.96609    0.25956   1.00
H2       0.35201    1.23587    0.13316   1.00
H2       0.34935    1.04047    0.26557   1.00
H2       0.39099    1.18907    0.14104   1.00
H2       0.28425    1.04702    0.25294   1.00
C4       0.97280    0.49486    0.68180   1.00
C4       1.02946    0.52582    0.66820   1.00
C3       0.93241    0.42282    0.68418   1.00
C3       1.05405    0.48748    0.65766   1.00
C3       0.95505    0.53676    0.69357   1.00
C3       1.06351    0.59783    0.66485   1.00
C2       0.86028    0.43230    0.71002   1.00
C2       1.14190    0.58788    0.63994   1.00
C3       0.87806    0.39239    0.69792   1.00
C3       1.10832    0.51739    0.64387   1.00
C3       0.89957    0.50377    0.70747   1.00
C3       1.11834    0.62625    0.65061   1.00
H1       0.94054    0.38973    0.67587   1.00
H1       1.03388    0.43649    0.65975   1.00
C5       0.99203    0.60946    0.69121   1.00
C5       1.04291    0.63951    0.67567   1.00
H1       0.85109    0.34015    0.69898   1.00
H1       1.12344    0.48689    0.63670   1.00
H1       0.88572    0.53185    0.71621   1.00
H1       1.14350    0.67718    0.64772   1.00
C6       0.97744    0.65350    0.70528   1.00
C6       1.07451    0.71436    0.67040   1.00
H2       0.97275    0.63469    0.72074   1.00
H2       1.07732    0.71998    0.65396   1.00
H2       1.02105    0.70468    0.70658   1.00
H2       1.04107    0.73414    0.67435   1.00
C6       0.91341    0.65840    0.69881   1.00
C6       1.14578    0.76001    0.68061   1.00
H2       0.87196    0.60781    0.69460   1.00
H2       1.17644    0.73522    0.67924   1.00
C6       0.88454    0.68956    0.71446   1.00
C6       1.18986    0.83503    0.67281   1.00
H2       0.92635    0.68855    0.68489   1.00
H2       1.13739    0.76158    0.69687   1.00
C6       0.85476    0.64360    0.73347   1.00
C6       1.21340    0.83742    0.65058   1.00
C6       0.93966    0.76206    0.72117   1.00
C6       1.15080    0.87479    0.67440   1.00
C6       0.82569    0.69503    0.70422   1.00
C6       1.25480    0.87214    0.68619   1.00
H2       0.81643    0.59170    0.72922   1.00
H2       1.24020    0.80883    0.64888   1.00
H2       0.89430    0.64090    0.74212   1.00
H2       1.17038    0.81588    0.64013   1.00
H2       0.83055    0.66326    0.74362   1.00
H2       1.24791    0.88977    0.64575   1.00
H2       0.91786    0.78521    0.73093   1.00
H2       1.18357    0.92827    0.67031   1.00
H2       0.98012    0.76053    0.72969   1.00
H2       1.10708    0.85356    0.66419   1.00
H2       0.96248    0.79509    0.70803   1.00
H2       1.13241    0.87269    0.68983   1.00
H2       0.78496    0.64497    0.69938   1.00
H2       1.28469    0.84646    0.68544   1.00
H2       0.80350    0.71615    0.71463   1.00
H2       1.28754    0.92474    0.68124   1.00
H2       0.84384    0.72803    0.69090   1.00
H2       1.24155    0.87337    0.70204   1.00
C4       0.52122    0.02758    0.68165   1.00
C4       0.49512    -0.02921   0.66810   1.00
C3       0.49600    0.07398    0.68200   1.00
C3       0.43738    -0.04770   0.65547   1.00
C3       0.57465    0.03926    0.69548   1.00
C3       0.52730    -0.06968   0.66694   1.00
C2       0.57163    0.14050    0.70975   1.00
C2       0.44433    -0.14200   0.63995   1.00
C3       0.52011    0.12854    0.69567   1.00
C3       0.41287    -0.10213   0.64175   1.00
C3       0.59753    0.09519    0.70923   1.00
C3       0.50099    -0.12446   0.65268   1.00
H1       0.45964    0.07026    0.67219   1.00
H1       0.41054    -0.02273   0.65592   1.00
C5       0.60406    -0.00402   0.69527   1.00
C5       0.58386    -0.05532   0.67988   1.00
H1       0.49962    0.16001    0.69520   1.00
H1       0.37117    -0.11268   0.63301   1.00
H1       0.63511    0.10487    0.71938   1.00
H1       0.52279    -0.15411   0.65132   1.00
C6       0.65537    0.00447    0.71138   1.00
C6       0.62191    -0.09386   0.67698   1.00
H2       0.63751    0.01124    0.72608   1.00
H2       0.62986    -0.09730   0.66083   1.00
H2       0.65659    -0.04240   0.71376   1.00
H2       0.67403    -0.06493   0.68250   1.00
C6       0.72941    0.06368    0.70667   1.00
C6       0.58586    -0.16585   0.68732   1.00
H2       0.72749    0.10845    0.70139   1.00
H2       0.53114    -0.19156   0.68422   1.00
C6       0.78323    0.08708    0.72417   1.00
C6       0.61185    -0.21610   0.68163   1.00
H2       0.74860    0.04786    0.69379   1.00
H2       0.59052    -0.15805   0.70373   1.00
C6       0.76531    0.12059    0.74185   1.00
C6       0.59702    -0.23859   0.65911   1.00
C6       0.79026    0.02694    0.73252   1.00
C6       0.68920    -0.18433   0.68577   1.00
C6       0.85366    0.14135    0.71562   1.00
C6       0.57342    -0.28113   0.69492   1.00
H2       0.75890    0.16259    0.73639   1.00
H2       0.54293    -0.26024   0.65561   1.00
H2       0.71828    0.08402    0.74940   1.00
H2       0.62584    -0.19590   0.64886   1.00
H2       0.80547    0.14096    0.75331   1.00
H2       0.61098    -0.27716   0.65566   1.00
H2       0.83126    0.04464    0.74368   1.00
H2       0.70580    -0.22140   0.68314   1.00
H2       0.74339    -0.01062   0.73997   1.00
H2       0.71896    -0.14102   0.67579   1.00
H2       0.80146    0.00154    0.72030   1.00
H2       0.70124    -0.16675   0.70143   1.00
H2       0.85169    0.18537    0.70970   1.00
H2       0.51847    -0.30600   0.69241   1.00
H2       0.89297    0.15966    0.72734   1.00
H2       0.58953    -0.31807   0.69140   1.00
H2       0.86981    0.12032    0.70333   1.00
H2       0.58300    -0.26875   0.71102   1.00
C4       0.50631    0.47875    0.68166   1.00
C4       0.47561    0.50484    0.66810   1.00
C3       0.57796    0.50422    0.68208   1.00
C3       0.51485    0.56279    0.65555   1.00
C3       0.46453    0.42508    0.69542   1.00
C3       0.40295    0.47243    0.66687   1.00
C2       0.56882    0.42836    0.70976   1.00
C2       0.41360    0.55561    0.63995   1.00
C3       0.60842    0.48012    0.69575   1.00
C3       0.48493    0.58729    0.64182   1.00
C3       0.49758    0.40222    0.70917   1.00
C3       0.37448    0.49874    0.65261   1.00
H1       0.61065    0.54077    0.67232   1.00
H1       0.56665    0.58979    0.65606   1.00
C5       0.39181    0.39542    0.69513   1.00
C5       0.36075    0.41565    0.67973   1.00
H1       0.66041    0.50079    0.69533   1.00
H1       0.51606    0.62914    0.63314   1.00
H1       0.46965    0.36447    0.71927   1.00
H1       0.32304    0.47678    0.65119   1.00
C6       0.34892    0.34384    0.71117   1.00
C6       0.28419    0.37739    0.67675   1.00
H2       0.37335    0.36158    0.72590   1.00
H2       0.27301    0.36961    0.66058   1.00
H2       0.30070    0.34238    0.71351   1.00
H2       0.26111    0.32521    0.68222   1.00
C6       0.33443    0.26995    0.70639   1.00
C6       0.24789    0.41307    0.68709   1.00
H2       0.38128    0.27214    0.70115   1.00
H2       0.27677    0.46784    0.68406   1.00
C6       0.30397    0.21589    0.72383   1.00
C6       0.17167    0.38688    0.68133   1.00
H2       0.29959    0.25081    0.69348   1.00
H2       0.25086    0.40823    0.70350   1.00
C6       0.35521    0.23376    0.74156   1.00
C6       0.16421    0.40194    0.65881   1.00
C6       0.23658    0.20849    0.73213   1.00
C6       0.12627    0.30945    0.68538   1.00
C6       0.28818    0.14565    0.71521   1.00
C6       0.14469    0.42494    0.69463   1.00
H2       0.40376    0.24044    0.73614   1.00
H2       0.19653    0.45609    0.65538   1.00
H2       0.36540    0.28064    0.74915   1.00
H2       0.17837    0.37337    0.64856   1.00
H2       0.33540    0.19346    0.75297   1.00
H2       0.11167    0.38782    0.65532   1.00
H2       0.21327    0.16733    0.74323   1.00
H2       0.07259    0.29269    0.68269   1.00
H2       0.24561    0.25519    0.73962   1.00
H2       0.14011    0.27994    0.67538   1.00
H2       0.20010    0.19730    0.71987   1.00
H2       0.13168    0.29726    0.70103   1.00
H2       0.33434    0.14790    0.70933   1.00
H2       0.17463    0.47994    0.69218   1.00
H2       0.26716    0.10619    0.72689   1.00
H2       0.09163    0.40869    0.69106   1.00
H2       0.25114    0.12954    0.70288   1.00
H2       0.14734    0.41519    0.71072   1.00
C4       0.50946    0.03750    0.17825   1.00
C4       0.47973    -0.01623   0.16364   1.00
C3       0.57237    0.05613    0.18813   1.00
C3       0.51413    -0.05020   0.15633   1.00
C3       0.47565    0.07451    0.18338   1.00
C3       0.41312    -0.03739   0.15586   1.00
C2       0.57132    0.14835    0.20705   1.00
C2       0.41832    -0.12714   0.13485   1.00
C3       0.60262    0.11005    0.20201   1.00
C3       0.48434    -0.10420   0.14245   1.00
C3       0.50835    0.12932    0.19752   1.00
C3       0.38445    -0.09284   0.14183   1.00
H1       0.59823    0.03077    0.18575   1.00
H1       0.56240    -0.03653   0.16066   1.00
C5       0.41080    0.05626    0.17458   1.00
C5       0.37714    -0.00323   0.16200   1.00
H1       0.64819    0.12111    0.20855   1.00
H1       0.51172    -0.12676   0.13784   1.00
H1       0.48612    0.15713    0.20145   1.00
H1       0.33702    -0.10966   0.13606   1.00
C6       0.37914    0.10035    0.17848   1.00
C6       0.30399    -0.03079   0.15534   1.00
H2       0.41841    0.15381    0.17715   1.00
H2       0.27634    -0.08608   0.15697   1.00
H2       0.34422    0.09549    0.16644   1.00
H2       0.27635    -0.01607   0.16574   1.00
C6       0.34096    0.08507    0.19933   1.00
C6       0.29760    -0.00848   0.13332   1.00
H2       0.37204    0.08002    0.21114   1.00
H2       0.33297    -0.01392   0.12326   1.00
C6       0.31951    0.13706    0.20702   1.00
C6       0.22545    -0.04571   0.12316   1.00
H2       0.29517    0.03487    0.19825   1.00
H2       0.31542    0.04613    0.13366   1.00
C6       0.38245    0.20732    0.21209   1.00
C6       0.20092    -0.12203   0.11911   1.00
C6       0.27430    0.14700    0.19132   1.00
C6       0.17168    -0.04003   0.13625   1.00
C6       0.27745    0.10872    0.22682   1.00
C6       0.22997    -0.01144   0.10237   1.00
H2       0.41600    0.20192    0.22289   1.00
H2       0.23832    -0.12782   0.11017   1.00
H2       0.41216    0.23216    0.19856   1.00
H2       0.19257    -0.15023   0.13319   1.00
H2       0.36704    0.24166    0.21875   1.00
H2       0.15284    -0.14635   0.11077   1.00
H2       0.25563    0.17948    0.19740   1.00
H2       0.12280    -0.06186   0.12839   1.00
H2       0.30297    0.17122    0.17757   1.00
H2       0.16308    -0.06742   0.15053   1.00
H2       0.23033    0.09810    0.18717   1.00
H2       0.18839    0.01317    0.13969   1.00
H2       0.30736    0.10143    0.23851   1.00
H2       0.26683    -0.01468   0.09244   1.00
H2       0.26163    0.14355    0.23286   1.00
H2       0.18079    -0.03603   0.09461   1.00
H2       0.23150    0.05970    0.22413   1.00
H2       0.24575    0.04234    0.10426   1.00
C4       0.97176    0.47962    0.18141   1.00
C4       1.02674    0.50800    0.16719   1.00
C3       0.97298    0.44457    0.19922   1.00
C3       1.08957    0.50964    0.17082   1.00
C3       0.91284    0.48596    0.17792   1.00
C3       1.01955    0.53614    0.14856   1.00
C2       0.86207    0.42512    0.21068   1.00
C2       1.13672    0.56234    0.13802   1.00
C3       0.92004    0.41841    0.21348   1.00
C3       1.14283    0.53564    0.15666   1.00
C3       0.86019    0.45893    0.19288   1.00
C3       1.07485    0.56178    0.13450   1.00
H1       1.01210    0.43614    0.20239   1.00
H1       1.09926    0.49262    0.18398   1.00
C5       0.90741    0.51818    0.15985   1.00
C5       0.95860    0.53853    0.14442   1.00
H1       0.92413    0.39391    0.22605   1.00
H1       1.18675    0.53510    0.16016   1.00
H1       0.81771    0.46286    0.19100   1.00
H1       1.07148    0.58176    0.12103   1.00
C6       0.84826    0.53098    0.15740   1.00
C6       0.94876    0.56171    0.12379   1.00
H2       0.84026    0.55039    0.17164   1.00
H2       0.96440    0.53831    0.11211   1.00
H2       0.86075    0.57328    0.14717   1.00
H2       0.89508    0.54089    0.12024   1.00
C6       0.78130    0.46675    0.14984   1.00
C6       0.98637    0.64124    0.12153   1.00
H2       0.77365    0.42170    0.15817   1.00
H2       1.03777    0.66348    0.12784   1.00
C6       0.71347    0.46914    0.15106   1.00
C6       0.99258    0.67099    0.09969   1.00
H2       0.78925    0.45752    0.13408   1.00
H2       0.96001    0.66008    0.13113   1.00
C6       0.69251    0.47118    0.17334   1.00
C6       1.03883    0.65576    0.08588   1.00
C6       0.71907    0.53115    0.13941   1.00
C6       0.92184    0.64296    0.08954   1.00
C6       0.65555    0.40335    0.14116   1.00
C6       1.02579    0.74967    0.10132   1.00
H2       0.68921    0.42863    0.18206   1.00
H2       1.08884    0.67395    0.09278   1.00
H2       0.72903    0.51827    0.18086   1.00
H2       1.01637    0.60133    0.08305   1.00
H2       0.64288    0.46805    0.17406   1.00
H2       1.04666    0.68068    0.07116   1.00
H2       0.67014    0.52966    0.13912   1.00
H2       0.92629    0.66764    0.07495   1.00
H2       0.75593    0.57889    0.14660   1.00
H2       0.89818    0.58833    0.08677   1.00
H2       0.73516    0.53171    0.12378   1.00
H2       0.88779    0.65175    0.09917   1.00
H2       0.64898    0.35792    0.14898   1.00
H2       1.07632    0.77217    0.10821   1.00
H2       0.60691    0.40242    0.14176   1.00
H2       1.03165    0.77291    0.08640   1.00
H2       0.66673    0.39966    0.12526   1.00
H2       0.99475    0.76371    0.11057   1.00
C4       0.52106    0.49339    0.18162   1.00
C4       0.49251    0.52012    0.16750   1.00
C3       0.56492    0.53329    0.19770   1.00
C3       0.49995    0.58610    0.16973   1.00
C3       0.50579    0.42423    0.17979   1.00
C3       0.45484    0.48002    0.15043   1.00
C2       0.57613    0.43841    0.21077   1.00
C2       0.43767    0.57558    0.13843   1.00
C3       0.59140    0.50667    0.21191   1.00
C3       0.47371    0.61323    0.15561   1.00
C3       0.53349    0.39896    0.19464   1.00
C3       0.42927    0.50967    0.13634   1.00
H1       0.57982    0.58340    0.19958   1.00
H1       0.52413    0.61665    0.18181   1.00
C5       0.46426    0.38241    0.16341   1.00
C5       0.44321    0.41213    0.14783   1.00
H1       0.62252    0.53801    0.22321   1.00
H1       0.48104    0.66124    0.15805   1.00
H1       0.52341    0.34993    0.19393   1.00
H1       0.40263    0.48292    0.12393   1.00
C6       0.44259    0.30741    0.16289   1.00
C6       0.40963    0.37309    0.12861   1.00
H2       0.42680    0.28612    0.17806   1.00
H2       0.43155    0.40703    0.11563   1.00
H2       0.39577    0.27795    0.15432   1.00
H2       0.42347    0.33448    0.12541   1.00
C6       0.49878    0.29343    0.15411   1.00
C6       0.32995    0.33858    0.12900   1.00
H2       0.54835    0.32985    0.16056   1.00
H2       0.31541    0.37445    0.13506   1.00
C6       0.48840    0.22019    0.15698   1.00
C6       0.29098    0.30997    0.10851   1.00
H2       0.50330    0.30475    0.13789   1.00
H2       0.31068    0.29682    0.13996   1.00
C6       0.49236    0.20410    0.17965   1.00
C6       0.30727    0.36786    0.09308   1.00
C6       0.41949    0.16478    0.14803   1.00
C6       0.30772    0.25770    0.09884   1.00
C6       0.54643    0.21634    0.14561   1.00
C6       0.21317    0.27298    0.11282   1.00
H2       0.54000    0.24294    0.18651   1.00
H2       0.29704    0.40622    0.09957   1.00
H2       0.45039    0.20180    0.18835   1.00
H2       0.36050    0.39340    0.08840   1.00
H2       0.48982    0.15495    0.18137   1.00
H2       0.27635    0.34793    0.07940   1.00
H2       0.41491    0.11450    0.14880   1.00
H2       0.27669    0.23447    0.08535   1.00
H2       0.37675    0.16213    0.15642   1.00
H2       0.36104    0.28218    0.09422   1.00
H2       0.41478    0.17570    0.13218   1.00
H2       0.29805    0.21712    0.10955   1.00
H2       0.59632    0.25407    0.15151   1.00
H2       0.19848    0.30790    0.11949   1.00
H2       0.54164    0.16616    0.14728   1.00
H2       0.18369    0.25244    0.09891   1.00
H2       0.54547    0.22591    0.12942   1.00
H2       0.19822    0.23059    0.12333   1.00
C4       0.70427    0.84232    0.65512   1.00
C4       0.65046    0.81241    0.66970   1.00
C3       0.72591    0.90744    0.64630   1.00
C3       0.61946    0.84839    0.67804   1.00
C3       0.73826    0.80643    0.64894   1.00
C3       0.62614    0.74400    0.67639   1.00
C2       0.81532    0.90434    0.62639   1.00
C2       0.53937    0.75086    0.69843   1.00
C3       0.77994    0.93775    0.63244   1.00
C3       0.56538    0.81856    0.69189   1.00
C3       0.79329    0.83925    0.63488   1.00
C3       0.57072    0.71536    0.69043   1.00
H1       0.70278    0.93499    0.64945   1.00
H1       0.63546    0.89784    0.67451   1.00
C5       0.71686    0.73948    0.65665   1.00
C5       0.65724    0.70620    0.66918   1.00
H1       0.79326    0.98495    0.62669   1.00
H1       0.54505    0.84713    0.69727   1.00
H1       0.81900    0.81555    0.63022   1.00
H1       0.55172    0.66671    0.69544   1.00
C6       0.75784    0.70519    0.65166   1.00
C6       0.62635    0.63162    0.67470   1.00
H2       0.81195    0.74226    0.65318   1.00
H2       0.57112    0.60663    0.67312   1.00
H2       0.75116    0.66765    0.66305   1.00
H2       0.63905    0.60417    0.66362   1.00
C6       0.74082    0.67035    0.63026   1.00
C6       0.64766    0.62016    0.69632   1.00
H2       0.73769    0.70446    0.61913   1.00
H2       0.64440    0.65507    0.70712   1.00
C6       0.79005    0.64671    0.62161   1.00
C6       0.60744    0.54656    0.70545   1.00
H2       0.68951    0.62602    0.63098   1.00
H2       0.70166    0.63544    0.69574   1.00
C6       0.86180    0.70818    0.61703   1.00
C6       0.53199    0.52500    0.70983   1.00
C6       0.79714    0.59719    0.63629   1.00
C6       0.60987    0.49328    0.69126   1.00
C6       0.76013    0.60845    0.60132   1.00
C6       0.64097    0.54583    0.72592   1.00
H2       0.85846    0.74468    0.60695   1.00
H2       0.52850    0.56220    0.71955   1.00
H2       0.88760    0.73501    0.63085   1.00
H2       0.50413    0.52036    0.69591   1.00
H2       0.89424    0.69155    0.60971   1.00
H2       0.50566    0.47568    0.71747   1.00
H2       0.82759    0.57724    0.62950   1.00
H2       0.58593    0.44306    0.69839   1.00
H2       0.82228    0.62295    0.65032   1.00
H2       0.58280    0.48836    0.67713   1.00
H2       0.74719    0.55414    0.64010   1.00
H2       0.66245    0.50800    0.68759   1.00
H2       0.75475    0.64147    0.59031   1.00
H2       0.63993    0.58217    0.73660   1.00
H2       0.79303    0.59128    0.59460   1.00
H2       0.61432    0.49548    0.73297   1.00
H2       0.70996    0.56362    0.60363   1.00
H2       0.69405    0.55932    0.72377   1.00
C4       0.13225    0.29695    0.65462   1.00
C4       0.15614    0.35227    0.66867   1.00
C3       0.14131    0.23977    0.65787   1.00
C3       0.18425    0.35097    0.68789   1.00
C3       0.09796    0.29805    0.63653   1.00
C3       0.15207    0.41151    0.66357   1.00
C2       0.08101    0.18349    0.62671   1.00
C2       0.20755    0.46547    0.69668   1.00
C3       0.11623    0.18456    0.64442   1.00
C3       0.20951    0.40591    0.70145   1.00
C3       0.07286    0.24064    0.62328   1.00
C3       0.17871    0.46651    0.67776   1.00
H1       0.16708    0.23641    0.67004   1.00
H1       0.18680    0.30979    0.69285   1.00
C5       0.08983    0.35554    0.63201   1.00
C5       0.12168    0.41461    0.64481   1.00
H1       0.12420    0.14473    0.64767   1.00
H1       0.22940    0.40191    0.71504   1.00
H1       0.04781    0.23933    0.61034   1.00
H1       0.17715    0.50967    0.67461   1.00
C6       0.04719    0.35284    0.61396   1.00
C6       0.12428    0.48029    0.63865   1.00
H2       0.00081    0.30317    0.61357   1.00
H2       0.17511    0.52298    0.64173   1.00
H2       0.02674    0.38687    0.61587   1.00
H2       0.12084    0.48385    0.62230   1.00
C6       0.08690    0.36957    0.59336   1.00
C6       0.06754    0.49034    0.64897   1.00
H2       0.11585    0.34284    0.59262   1.00
H2       0.06398    0.47715    0.66505   1.00
C6       0.04437    0.35370    0.57335   1.00
C6       0.07432    0.56246    0.64737   1.00
H2       0.12519    0.42376    0.59344   1.00
H2       0.01857    0.45296    0.64243   1.00
C6       -0.00395   0.27597    0.57041   1.00
C6       0.13731    0.61711    0.65917   1.00
C6       0.00204    0.39027    0.57286   1.00
C6       0.07885    0.58536    0.62500   1.00
C6       0.09438    0.37984    0.55509   1.00
C6       0.00997    0.55888    0.65696   1.00
H2       0.02426    0.24853    0.57101   1.00
H2       0.13621    0.60191    0.67495   1.00
H2       -0.04322   0.25492    0.58207   1.00
H2       0.18475    0.62532    0.65244   1.00
H2       -0.02983   0.26514    0.55578   1.00
H2       0.13895    0.66609    0.65915   1.00
H2       -0.02355   0.38286    0.55827   1.00
H2       0.07863    0.63336    0.62399   1.00
H2       -0.03719   0.37036    0.58457   1.00
H2       0.12574    0.59321    0.61792   1.00
H2       0.03467    0.44494    0.57532   1.00
H2       0.03580    0.54708    0.61625   1.00
H2       0.12511    0.35501    0.55460   1.00
H2       0.00475    0.54358    0.67286   1.00
H2       0.06700    0.36949    0.54071   1.00
H2       0.01252    0.60828    0.65632   1.00
H2       0.12903    0.43477    0.55607   1.00
H2       -0.03620   0.52207    0.64900   1.00
C4       0.16429    0.86754    0.65469   1.00
C4       0.19568    0.84371    0.66878   1.00
C3       0.09672    0.85550    0.65740   1.00
C3       0.16458    0.81256    0.68756   1.00
C3       0.20109    0.90484    0.63713   1.00
C3       0.26070    0.85099    0.66416   1.00
C2       0.10198    0.91858    0.62675   1.00
C2       0.25754    0.79248    0.69682   1.00
C3       0.06653    0.88048    0.64393   1.00
C3       0.19430    0.78738    0.70113   1.00
C3       0.16865    0.92972    0.62384   1.00
C3       0.28906    0.82432    0.67834   1.00
H1       0.06665    0.82755    0.66915   1.00
H1       0.11948    0.80761    0.69218   1.00
C5       0.26822    0.91611    0.63314   1.00
C5       0.29581    0.88448    0.64588   1.00
H1       0.01772    0.87028    0.64678   1.00
H1       0.16914    0.76521    0.71439   1.00
H1       0.19336    0.95685    0.61127   1.00
H1       0.33498    0.82811    0.67553   1.00
C6       0.30930    0.96175    0.61571   1.00
C6       0.36101    0.88535    0.64017   1.00
H2       0.30403    1.00702    0.61564   1.00
H2       0.35450    0.83493    0.64280   1.00
H2       0.36378    0.98379    0.61816   1.00
H2       0.36997    0.89109    0.62390   1.00
C6       0.29003    0.92458    0.59466   1.00
C6       0.42547    0.94231    0.65137   1.00
H2       0.23457    0.89405    0.59332   1.00
H2       0.41356    0.94335    0.66739   1.00
C6       0.31781    0.96982    0.57518   1.00
C6       0.49260    0.93862    0.65018   1.00
H2       0.30788    0.88780    0.59458   1.00
H2       0.43598    0.99150    0.64528   1.00
C6       0.28611    1.01621    0.57239   1.00
C6       0.48535    0.87517    0.66145   1.00
C6       0.39655    1.01458    0.57557   1.00
C6       0.51421    0.93779    0.62794   1.00
C6       0.29779    0.92225    0.55639   1.00
C6       0.55069    1.00285    0.66068   1.00
H2       0.23047    0.98623    0.57239   1.00
H2       0.46904    0.87367    0.67713   1.00
H2       0.30163    1.05390    0.58447   1.00
H2       0.44818    0.82801    0.65409   1.00
H2       0.30211    1.04401    0.55807   1.00
H2       0.53373    0.87556    0.66175   1.00
H2       0.41576    1.04221    0.56131   1.00
H2       0.56351    0.94015    0.62727   1.00
H2       0.41318    1.05225    0.58770   1.00
H2       0.47724    0.89121    0.62024   1.00
H2       0.42012    0.98327    0.57794   1.00
H2       0.51829    0.98120    0.61955   1.00
H2       0.24249    0.88994    0.55528   1.00
H2       0.53828    1.00552    0.67654   1.00
H2       0.31572    0.95155    0.54236   1.00
H2       0.59866    1.00239    0.66036   1.00
H2       0.31985    0.88910    0.55727   1.00
H2       0.55922    1.04940    0.65314   1.00
