data_IRMOF10_interpen_symm_ligand11cp_label_e_1.

_audit_creation_method             'generated by an auxiliary program of Tobunporous'

_symmetry_space_group_name_H-M     'P 1'
_symmetry_Int_Tables_number        1
_symmetry_cell_setting             triclinic

_cell_length_a                    22.6523
_cell_length_b                    22.6523
_cell_length_c                    65.9502
_cell_angle_alpha                 90.0000
_cell_angle_beta                  90.0000
_cell_angle_gamma                 120.0000

loop_
_atom_site_label
_atom_site_fract_x
_atom_site_fract_y
_atom_site_fract_z
_atom_site_occupancy
O1       0.00000    0.00000    0.57470   1.00
Zn1      0.00000    0.00000    0.54560   1.00
Zn1      0.94843    0.04287    0.58357   1.00
Zn1      0.09443    0.05157    0.58357   1.00
Zn1      0.95713    0.90557    0.58357   1.00
O2       0.93860    0.02610    0.53560   1.00
O2       0.08750    0.06140    0.53560   1.00
O2       0.97390    0.91250    0.53560   1.00
O2       0.91300    0.07160    0.56150   1.00
O2       0.00463    0.12027    0.60077   1.00
O2       0.87413    0.98077    0.60037   1.00
O2       0.15860    0.08700    0.56150   1.00
O2       0.10663    0.12587    0.60037   1.00
O2       0.11563    0.99537    0.60077   1.00
O2       0.92840    0.84140    0.56150   1.00
O2       0.87973    0.88437    0.60077   1.00
O2       0.01923    0.89337    0.60037   1.00
C1       0.91390    0.06020    0.54330   1.00
C1       0.14630    0.08610    0.54330   1.00
C1       0.93980    0.85370    0.54330   1.00
C1       0.06663    0.14397    0.60637   1.00
C1       0.85603    0.92267    0.60637   1.00
C1       0.07733    0.93337    0.60637   1.00
O1       0.00000    0.00000    0.92530   1.00
Zn1      0.00000    0.00000    0.95440   1.00
Zn1      0.04287    0.94843    0.91643   1.00
Zn1      0.05157    0.09443    0.91643   1.00
Zn1      0.90557    0.95713    0.91643   1.00
O2       0.02610    0.93860    0.96440   1.00
O2       0.06140    0.08750    0.96440   1.00
O2       0.91250    0.97390    0.96440   1.00
O2       0.07160    0.91300    0.93850   1.00
O2       0.12027    0.00463    0.89923   1.00
O2       0.98077    0.87413    0.89963   1.00
O2       0.08700    0.15860    0.93850   1.00
O2       0.12587    0.10663    0.89963   1.00
O2       0.99537    0.11563    0.89923   1.00
O2       0.84140    0.92840    0.93850   1.00
O2       0.88437    0.87973    0.89923   1.00
O2       0.89337    0.01923    0.89963   1.00
C1       0.06020    0.91390    0.95670   1.00
C1       0.08610    0.14630    0.95670   1.00
C1       0.85370    0.93980    0.95670   1.00
C1       0.14397    0.06663    0.89363   1.00
C1       0.92267    0.85603    0.89363   1.00
C1       0.93337    0.07733    0.89363   1.00
O1       0.00000    0.00000    0.42530   1.00
Zn1      0.00000    0.00000    0.45440   1.00
Zn1      0.05157    0.95713    0.41643   1.00
Zn1      0.90557    0.94843    0.41643   1.00
Zn1      0.04287    0.09443    0.41643   1.00
O2       0.06140    0.97390    0.46440   1.00
O2       0.91250    0.93860    0.46440   1.00
O2       0.02610    0.08750    0.46440   1.00
O2       0.08700    0.92840    0.43850   1.00
O2       0.99537    0.87973    0.39923   1.00
O2       0.12587    0.01923    0.39963   1.00
O2       0.84140    0.91300    0.43850   1.00
O2       0.89337    0.87413    0.39963   1.00
O2       0.88437    0.00463    0.39923   1.00
O2       0.07160    0.15860    0.43850   1.00
O2       0.12027    0.11563    0.39923   1.00
O2       0.98077    0.10663    0.39963   1.00
C1       0.08610    0.93980    0.45670   1.00
C1       0.85370    0.91390    0.45670   1.00
C1       0.06020    0.14630    0.45670   1.00
C1       0.93337    0.85603    0.39363   1.00
C1       0.14397    0.07733    0.39363   1.00
C1       0.92267    0.06663    0.39363   1.00
O1       0.00000    0.00000    0.07470   1.00
Zn1      0.00000    0.00000    0.04560   1.00
Zn1      0.95713    0.05157    0.08357   1.00
Zn1      0.94843    0.90557    0.08357   1.00
Zn1      0.09443    0.04287    0.08357   1.00
O2       0.97390    0.06140    0.03560   1.00
O2       0.93860    0.91250    0.03560   1.00
O2       0.08750    0.02610    0.03560   1.00
O2       0.92840    0.08700    0.06150   1.00
O2       0.87973    0.99537    0.10077   1.00
O2       0.01923    0.12587    0.10037   1.00
O2       0.91300    0.84140    0.06150   1.00
O2       0.87413    0.89337    0.10037   1.00
O2       0.00463    0.88437    0.10077   1.00
O2       0.15860    0.07160    0.06150   1.00
O2       0.11563    0.12027    0.10077   1.00
O2       0.10663    0.98077    0.10037   1.00
C1       0.93980    0.08610    0.04330   1.00
C1       0.91390    0.85370    0.04330   1.00
C1       0.14630    0.06020    0.04330   1.00
C1       0.85603    0.93337    0.10637   1.00
C1       0.07733    0.14397    0.10637   1.00
C1       0.06663    0.92267    0.10637   1.00
O1       0.66667    0.33333    0.90803   1.00
Zn1      0.66667    0.33333    0.87893   1.00
Zn1      0.61510    0.37620    0.91690   1.00
Zn1      0.76110    0.38490    0.91690   1.00
Zn1      0.62380    0.23890    0.91690   1.00
O2       0.60527    0.35943    0.86893   1.00
O2       0.75417    0.39473    0.86893   1.00
O2       0.64057    0.24583    0.86893   1.00
O2       0.57967    0.40493    0.89483   1.00
O2       0.67130    0.45360    0.93410   1.00
O2       0.54080    0.31410    0.93370   1.00
O2       0.82527    0.42033    0.89483   1.00
O2       0.77330    0.45920    0.93370   1.00
O2       0.78230    0.32870    0.93410   1.00
O2       0.59507    0.17473    0.89483   1.00
O2       0.54640    0.21770    0.93410   1.00
O2       0.68590    0.22670    0.93370   1.00
C1       0.58057    0.39353    0.87663   1.00
C1       0.81297    0.41943    0.87663   1.00
C1       0.60647    0.18703    0.87663   1.00
C1       0.73330    0.47730    0.93970   1.00
C1       0.52270    0.25600    0.93970   1.00
C1       0.74400    0.26670    0.93970   1.00
O1       0.66667    0.33333    0.25863   1.00
Zn1      0.66667    0.33333    0.28773   1.00
Zn1      0.70953    0.28177    0.24977   1.00
Zn1      0.71823    0.42777    0.24977   1.00
Zn1      0.57223    0.29047    0.24977   1.00
O2       0.69277    0.27193    0.29773   1.00
O2       0.72807    0.42083    0.29773   1.00
O2       0.57917    0.30723    0.29773   1.00
O2       0.73827    0.24633    0.27183   1.00
O2       0.78693    0.33797    0.23257   1.00
O2       0.64743    0.20747    0.23297   1.00
O2       0.75367    0.49193    0.27183   1.00
O2       0.79253    0.43997    0.23297   1.00
O2       0.66203    0.44897    0.23257   1.00
O2       0.50807    0.26173    0.27183   1.00
O2       0.55103    0.21307    0.23257   1.00
O2       0.56003    0.35257    0.23297   1.00
C1       0.72687    0.24723    0.29003   1.00
C1       0.75277    0.47963    0.29003   1.00
C1       0.52037    0.27313    0.29003   1.00
C1       0.81063    0.39997    0.22697   1.00
C1       0.58933    0.18937    0.22697   1.00
C1       0.60003    0.41067    0.22697   1.00
O1       0.66667    0.33333    0.75863   1.00
Zn1      0.66667    0.33333    0.78773   1.00
Zn1      0.71823    0.29047    0.74977   1.00
Zn1      0.57223    0.28177    0.74977   1.00
Zn1      0.70953    0.42777    0.74977   1.00
O2       0.72807    0.30723    0.79773   1.00
O2       0.57917    0.27193    0.79773   1.00
O2       0.69277    0.42083    0.79773   1.00
O2       0.75367    0.26173    0.77183   1.00
O2       0.66203    0.21307    0.73257   1.00
O2       0.79253    0.35257    0.73297   1.00
O2       0.50807    0.24633    0.77183   1.00
O2       0.56003    0.20747    0.73297   1.00
O2       0.55103    0.33797    0.73257   1.00
O2       0.73827    0.49193    0.77183   1.00
O2       0.78693    0.44897    0.73257   1.00
O2       0.64743    0.43997    0.73297   1.00
C1       0.75277    0.27313    0.79003   1.00
C1       0.52037    0.24723    0.79003   1.00
C1       0.72687    0.47963    0.79003   1.00
C1       0.60003    0.18937    0.72697   1.00
C1       0.81063    0.41067    0.72697   1.00
C1       0.58933    0.39997    0.72697   1.00
O1       0.66667    0.33333    0.40803   1.00
Zn1      0.66667    0.33333    0.37893   1.00
Zn1      0.62380    0.38490    0.41690   1.00
Zn1      0.61510    0.23890    0.41690   1.00
Zn1      0.76110    0.37620    0.41690   1.00
O2       0.64057    0.39473    0.36893   1.00
O2       0.60527    0.24583    0.36893   1.00
O2       0.75417    0.35943    0.36893   1.00
O2       0.59507    0.42033    0.39483   1.00
O2       0.54640    0.32870    0.43410   1.00
O2       0.68590    0.45920    0.43370   1.00
O2       0.57967    0.17473    0.39483   1.00
O2       0.54080    0.22670    0.43370   1.00
O2       0.67130    0.21770    0.43410   1.00
O2       0.82527    0.40493    0.39483   1.00
O2       0.78230    0.45360    0.43410   1.00
O2       0.77330    0.31410    0.43370   1.00
C1       0.60647    0.41943    0.37663   1.00
C1       0.58057    0.18703    0.37663   1.00
C1       0.81297    0.39353    0.37663   1.00
C1       0.52270    0.26670    0.43970   1.00
C1       0.74400    0.47730    0.43970   1.00
C1       0.73330    0.25600    0.43970   1.00
O1       0.33333    0.66667    0.24137   1.00
Zn1      0.33333    0.66667    0.21227   1.00
Zn1      0.28177    0.70953    0.25023   1.00
Zn1      0.42777    0.71823    0.25023   1.00
Zn1      0.29047    0.57223    0.25023   1.00
O2       0.27193    0.69277    0.20227   1.00
O2       0.42083    0.72807    0.20227   1.00
O2       0.30723    0.57917    0.20227   1.00
O2       0.24633    0.73827    0.22817   1.00
O2       0.33797    0.78693    0.26743   1.00
O2       0.20747    0.64743    0.26703   1.00
O2       0.49193    0.75367    0.22817   1.00
O2       0.43997    0.79253    0.26703   1.00
O2       0.44897    0.66203    0.26743   1.00
O2       0.26173    0.50807    0.22817   1.00
O2       0.21307    0.55103    0.26743   1.00
O2       0.35257    0.56003    0.26703   1.00
C1       0.24723    0.72687    0.20997   1.00
C1       0.47963    0.75277    0.20997   1.00
C1       0.27313    0.52037    0.20997   1.00
C1       0.39997    0.81063    0.27303   1.00
C1       0.18937    0.58933    0.27303   1.00
C1       0.41067    0.60003    0.27303   1.00
O1       0.33333    0.66667    0.59197   1.00
Zn1      0.33333    0.66667    0.62107   1.00
Zn1      0.37620    0.61510    0.58310   1.00
Zn1      0.38490    0.76110    0.58310   1.00
Zn1      0.23890    0.62380    0.58310   1.00
O2       0.35943    0.60527    0.63107   1.00
O2       0.39473    0.75417    0.63107   1.00
O2       0.24583    0.64057    0.63107   1.00
O2       0.40493    0.57967    0.60517   1.00
O2       0.45360    0.67130    0.56590   1.00
O2       0.31410    0.54080    0.56630   1.00
O2       0.42033    0.82527    0.60517   1.00
O2       0.45920    0.77330    0.56630   1.00
O2       0.32870    0.78230    0.56590   1.00
O2       0.17473    0.59507    0.60517   1.00
O2       0.21770    0.54640    0.56590   1.00
O2       0.22670    0.68590    0.56630   1.00
C1       0.39353    0.58057    0.62337   1.00
C1       0.41943    0.81297    0.62337   1.00
C1       0.18703    0.60647    0.62337   1.00
C1       0.47730    0.73330    0.56030   1.00
C1       0.25600    0.52270    0.56030   1.00
C1       0.26670    0.74400    0.56030   1.00
O1       0.33333    0.66667    0.09197   1.00
Zn1      0.33333    0.66667    0.12107   1.00
Zn1      0.38490    0.62380    0.08310   1.00
Zn1      0.23890    0.61510    0.08310   1.00
Zn1      0.37620    0.76110    0.08310   1.00
O2       0.39473    0.64057    0.13107   1.00
O2       0.24583    0.60527    0.13107   1.00
O2       0.35943    0.75417    0.13107   1.00
O2       0.42033    0.59507    0.10517   1.00
O2       0.32870    0.54640    0.06590   1.00
O2       0.45920    0.68590    0.06630   1.00
O2       0.17473    0.57967    0.10517   1.00
O2       0.22670    0.54080    0.06630   1.00
O2       0.21770    0.67130    0.06590   1.00
O2       0.40493    0.82527    0.10517   1.00
O2       0.45360    0.78230    0.06590   1.00
O2       0.31410    0.77330    0.06630   1.00
C1       0.41943    0.60647    0.12337   1.00
C1       0.18703    0.58057    0.12337   1.00
C1       0.39353    0.81297    0.12337   1.00
C1       0.26670    0.52270    0.06030   1.00
C1       0.47730    0.74400    0.06030   1.00
C1       0.25600    0.73330    0.06030   1.00
O1       0.33333    0.66667    0.74137   1.00
Zn1      0.33333    0.66667    0.71227   1.00
Zn1      0.29047    0.71823    0.75023   1.00
Zn1      0.28177    0.57223    0.75023   1.00
Zn1      0.42777    0.70953    0.75023   1.00
O2       0.30723    0.72807    0.70227   1.00
O2       0.27193    0.57917    0.70227   1.00
O2       0.42083    0.69277    0.70227   1.00
O2       0.26173    0.75367    0.72817   1.00
O2       0.21307    0.66203    0.76743   1.00
O2       0.35257    0.79253    0.76703   1.00
O2       0.24633    0.50807    0.72817   1.00
O2       0.20747    0.56003    0.76703   1.00
O2       0.33797    0.55103    0.76743   1.00
O2       0.49193    0.73827    0.72817   1.00
O2       0.44897    0.78693    0.76743   1.00
O2       0.43997    0.64743    0.76703   1.00
C1       0.27313    0.75277    0.70997   1.00
C1       0.24723    0.52037    0.70997   1.00
C1       0.47963    0.72687    0.70997   1.00
C1       0.18937    0.60003    0.77303   1.00
C1       0.41067    0.81063    0.77303   1.00
C1       0.39997    0.58933    0.77303   1.00
C5       0.91441    0.96700    0.49380   1.00
H2       0.88383    0.96412    0.50731   1.00
H2       0.88064    0.95741    0.48051   1.00
C5       0.97814    1.03897    0.49244   1.00
H2       0.96508    1.07577    0.48546   1.00
H2       1.01829    1.03724    0.48315   1.00
O_3      0.93759    0.68009    0.46958   1.00
C4       0.85625    0.68793    0.50056   1.00
C3c      0.85527    0.74861    0.49705   1.00
H1       0.83194    0.75400    0.48340   1.00
C3d      0.88604    0.68156    0.51858   1.00
C3       0.88502    0.80340    0.51085   1.00
O2       0.87480    0.85768    0.50764   1.00
C3       0.91685    0.73650    0.53216   1.00
H1       0.94120    0.73015    0.54542   1.00
C2       0.91698    0.79851    0.52874   1.00
C5       0.97997    0.65517    0.47657   1.00
H2       0.97292    0.61020    0.46768   1.00
H2       0.96985    0.64007    0.49286   1.00
C5       1.05345    0.71207    0.47424   1.00
H2       1.06001    0.75765    0.48265   1.00
H2       1.06316    0.72629    0.45789   1.00
C5       1.10311    0.68999    0.48219   1.00
H2       1.09651    0.64421    0.47395   1.00
H2       1.09503    0.67806    0.49868   1.00
H2       1.15658    0.73170    0.47995   1.00
C5       0.83360    0.57384    0.53162   1.00
C5       0.92951    0.90860    0.49626   1.00
H2       0.78788    0.55690    0.52185   1.00
H2       0.82438    0.59178    0.54642   1.00
H2       0.93222    0.88811    0.48110   1.00
H2       0.97995    0.92725    0.50386   1.00
H2       0.99905    1.05943    0.50784   1.00
H2       0.74192    0.42897    0.52728   1.00
H2       0.75024    0.45769    0.55341   1.00
C2       0.77352    0.52255    0.45813   1.00
C3       0.73091    0.52740    0.47287   1.00
O2       0.66792    0.47182    0.47716   1.00
C3       0.84255    0.57506    0.45718   1.00
H1       0.87604    0.57376    0.44573   1.00
C3a      0.75822    0.58289    0.48650   1.00
H1       0.72593    0.58383    0.49843   1.00
C3b      0.87007    0.62901    0.47117   1.00
C4       0.82792    0.63321    0.48601   1.00
O_3      0.89290    0.62499    0.52202   1.00
C5       0.61594    0.47905    0.46773   1.00
H2       0.61631    0.52604    0.47306   1.00
C5       0.54801    0.41630    0.47348   1.00
H2       0.62187    0.48158    0.45092   1.00
H2       0.53401    0.42388    0.48906   1.00
H2       0.55667    0.37207    0.47430   1.00
C5       0.49023    0.40181    0.45840   1.00
H2       0.48592    0.44829    0.45655   1.00
H2       0.44058    0.35950    0.46397   1.00
H2       0.49956    0.38557    0.44328   1.00
C5       0.84397    0.51333    0.53543   1.00
H2       0.88189    0.52692    0.54787   1.00
H2       0.86690    0.50494    0.52155   1.00
C5       0.77666    0.44819    0.54068   1.00
H2       0.78712    0.40720    0.54540   1.00
C5       0.27971    0.27669    0.57654   1.00
H2       0.23201    0.27566    0.57197   1.00
H2       0.32159    0.32958    0.57367   1.00
C5       0.27621    0.25918    0.59936   1.00
H2       0.28964    0.30480    0.60888   1.00
H2       0.31211    0.24041    0.60281   1.00
O_3      0.42505    0.15301    0.50778   1.00
C4       0.31121    0.16857    0.50025   1.00
C3c      0.30943    0.20868    0.51622   1.00
H1       0.35049    0.26068    0.51793   1.00
C3d      0.25672    0.10125    0.49813   1.00
C3       0.25554    0.18236    0.53035   1.00
O2       0.25306    0.22696    0.54404   1.00
C3       0.20365    0.07448    0.51240   1.00
H1       0.16421    0.02184    0.51057   1.00
C2       0.20142    0.11410    0.52877   1.00
C5       0.41256    0.08681    0.50322   1.00
H2       0.45084    0.08757    0.49243   1.00
H2       0.36083    0.05493    0.49647   1.00
C5       0.41673    0.05439    0.52294   1.00
H2       0.37982    0.05537    0.53392   1.00
H2       0.46876    0.08628    0.52944   1.00
C5       0.40131    -0.01894   0.51946   1.00
H2       0.43769    -0.02034   0.50840   1.00
H2       0.34851    -0.05140   0.51363   1.00
H2       0.40608    -0.04127   0.53396   1.00
C5       0.23081    0.06573    0.46530   1.00
C5       0.28616    0.22697    0.56222   1.00
H2       0.26122    0.11851    0.45929   1.00
H2       0.17693    0.05356    0.46729   1.00
H2       0.34098    0.24450    0.55920   1.00
H2       0.26312    0.17520    0.56928   1.00
H2       0.22344    0.21952    0.60389   1.00
H2       0.26564    0.08188    0.42274   1.00
H2       0.17412    0.03627    0.42710   1.00
C2       0.47733    0.24318    0.45818   1.00
C3       0.42245    0.25474    0.45463   1.00
O2       0.41278    0.27429    0.43567   1.00
C3       0.47738    0.20969    0.47630   1.00
H1       0.51950    0.20163    0.47971   1.00
C3a      0.36866    0.23135    0.46880   1.00
H1       0.32517    0.23714    0.46531   1.00
C3b      0.42277    0.18457    0.49004   1.00
C4       0.36775    0.19517    0.48634   1.00
O_3      0.25855    0.05806    0.48361   1.00
C5       0.43602    0.34487    0.43539   1.00
H2       0.40823    0.35855    0.44674   1.00
C5       0.42251    0.36218    0.41407   1.00
H2       0.49169    0.37500    0.43871   1.00
H2       0.36772    0.34729    0.41298   1.00
H2       0.43048    0.32917    0.40319   1.00
C5       0.46845    0.43808    0.40861   1.00
H2       0.46388    0.47037    0.42050   1.00
H2       0.45328    0.44983    0.39375   1.00
H2       0.52302    0.45172    0.40711   1.00
C5       0.23271    0.01649    0.44995   1.00
H2       0.19327    -0.03634   0.45424   1.00
H2       0.28312    0.01931    0.45119   1.00
C5       0.22143    0.03298    0.42813   1.00
H2       0.21603    -0.00790   0.41766   1.00
C5       0.75284    0.04978    0.58295   1.00
H2       0.74345    -0.00247   0.57995   1.00
H2       0.70224    0.04633    0.58196   1.00
C5       0.78321    0.07249    0.60446   1.00
H2       0.74229    0.05103    0.61616   1.00
H2       0.81100    0.12913    0.60554   1.00
O_3      0.87093    0.28158    0.50301   1.00
C4       0.83127    0.14254    0.50027   1.00
C3c      0.79713    0.11279    0.51848   1.00
H1       0.74982    0.11145    0.52197   1.00
C3d      0.89233    0.14289    0.49589   1.00
C3       0.82368    0.08530    0.53256   1.00
O2       0.78342    0.04972    0.54882   1.00
C3       0.91957    0.11673    0.51005   1.00
H1       0.96775    0.12030    0.50635   1.00
C2       0.88608    0.08712    0.52864   1.00
C5       0.93652    0.32464    0.49491   1.00
H2       0.93627    0.35970    0.48309   1.00
H2       0.95797    0.29435    0.48804   1.00
C5       0.98230    0.36727    0.51222   1.00
H2       0.98104    0.33223    0.52429   1.00
H2       0.96075    0.39776    0.51885   1.00
C5       1.05555    0.41404    0.50485   1.00
H2       1.05712    0.44884    0.49269   1.00
H2       1.07793    0.38355    0.49888   1.00
H2       1.08789    0.44586    0.51761   1.00
C5       0.90779    0.13088    0.46227   1.00
C5       0.79884    0.09382    0.56563   1.00
H2       0.85368    0.11377    0.45856   1.00
H2       0.91275    0.08504    0.46526   1.00
H2       0.78781    0.13543    0.56192   1.00
H2       0.85369    0.11842    0.57019   1.00
H2       0.81886    0.05339    0.60824   1.00
H2       0.87339    0.13338    0.42021   1.00
H2       0.90876    0.07804    0.42475   1.00
C2       0.75716    0.23381    0.45794   1.00
C3       0.73378    0.16322    0.45695   1.00
O2       0.70114    0.12648    0.43979   1.00
C3       0.80251    0.27220    0.47374   1.00
H1       0.81996    0.32598    0.47523   1.00
C3a      0.75725    0.13324    0.47124   1.00
H1       0.74193    0.07997    0.46958   1.00
C3b      0.82745    0.24268    0.48753   1.00
C4       0.80499    0.17273    0.48634   1.00
O_3      0.93052    0.17611    0.47892   1.00
C5       0.63007    0.08870    0.44304   1.00
H2       0.61708    0.05234    0.45595   1.00
C5       0.59788    0.04870    0.42354   1.00
H2       0.60927    0.12311    0.44630   1.00
H2       0.60388    0.00282    0.42337   1.00
H2       0.62828    0.08122    0.41057   1.00
C5       0.52215    0.02797    0.42127   1.00
H2       0.49362    0.00022    0.43507   1.00
H2       0.49908    -0.00577   0.40785   1.00
H2       0.51603    0.07349    0.41883   1.00
C5       0.95196    0.16913    0.44412   1.00
H2       1.00368    0.17582    0.44642   1.00
H2       0.95810    0.22111    0.44385   1.00
C5       0.92073    0.13201    0.42400   1.00
H2       0.95747    0.15741    0.41140   1.00
C5       0.96868    0.92018    0.00684   1.00
H2       0.96647    0.88904    -0.00645   1.00
H2       0.95968    0.88739    0.02035   1.00
C5       1.04005    0.98483    0.00800   1.00
H2       1.07749    0.97314    0.01522   1.00
H2       1.03741    1.02507    0.01698   1.00
O_3      0.67819    0.93841    0.02979   1.00
C4       0.68794    0.85624    -0.00056   1.00
C3c      0.74926    0.85680    0.00319   1.00
H1       0.75518    0.83467    0.01703   1.00
C3d      0.68091    0.88445    -0.01882   1.00
C3       0.80403    0.88655    -0.01061   1.00
O2       0.85910    0.87780    -0.00712   1.00
C3       0.73582    0.91528    -0.03241   1.00
H1       0.72891    0.93841    -0.04587   1.00
C2       0.79846    0.91695    -0.02876   1.00
C5       0.65211    0.97935    0.02239   1.00
H2       0.60680    0.97195    0.03116   1.00
H2       0.63712    0.96801    0.00612   1.00
C5       0.70804    1.05338    0.02439   1.00
H2       0.75398    1.06034    0.01611   1.00
H2       0.72215    1.06429    0.04072   1.00
C5       0.68468    1.10153    0.01599   1.00
H2       0.63854    1.09451    0.02410   1.00
H2       0.67285    1.09226    -0.00048   1.00
H2       0.72568    1.15544    0.01799   1.00
C5       0.57322    0.82948    -0.03188   1.00
C5       0.90935    0.93371    0.00405   1.00
H2       0.55705    0.78451    -0.02184   1.00
H2       0.59159    0.81984    -0.04654   1.00
H2       0.88855    0.93687    0.01910   1.00
H2       0.92714    0.98352    -0.00385   1.00
H2       1.06032    1.00501    -0.00747   1.00
H2       0.42877    0.73596    -0.02742   1.00
H2       0.45770    0.74321    -0.05350   1.00
C2       0.52247    0.77346    0.04184   1.00
C3       0.52832    0.73053    0.02744   1.00
O2       0.47352    0.66678    0.02340   1.00
C3       0.57405    0.84292    0.04248   1.00
H1       0.57199    0.87671    0.05367   1.00
C3a      0.58385    0.75790    0.01382   1.00
H1       0.58553    0.72525    0.00214   1.00
C3b      0.62802    0.87044    0.02850   1.00
C4       0.63320    0.82793    0.01399   1.00
O_3      0.62362    0.88981    -0.02252   1.00
C5       0.48191    0.61611    0.03324   1.00
H2       0.52941    0.61716    0.02809   1.00
C5       0.41997    0.54723    0.02776   1.00
H2       0.48429    0.62306    0.05002   1.00
H2       0.42797    0.53259    0.01231   1.00
H2       0.37510    0.55479    0.02670   1.00
C5       0.40652    0.49071    0.04321   1.00
H2       0.45358    0.48756    0.04526   1.00
H2       0.36485    0.44035    0.03784   1.00
H2       0.38987    0.50051    0.05819   1.00
C5       0.51186    0.83820    -0.03599   1.00
H2       0.52482    0.87523    -0.04866   1.00
H2       0.50285    0.86154    -0.02232   1.00
C5       0.44749    0.76991    -0.04099   1.00
H2       0.40586    0.77908    -0.04596   1.00
C5       0.27660    0.27979    -0.07657   1.00
H2       0.27561    0.23211    -0.07200   1.00
H2       0.32949    0.32169    -0.07370   1.00
C5       0.25904    0.27627    -0.09938   1.00
H2       0.30464    0.28973    -0.10891   1.00
H2       0.24023    0.31215    -0.10282   1.00
O_3      0.15291    0.42500    -0.00776   1.00
C4       0.16857    0.31121    -0.00025   1.00
C3c      0.20867    0.30945    -0.01623   1.00
H1       0.26065    0.35053    -0.01795   1.00
C3d      0.10127    0.25670    0.00188   1.00
C3       0.18234    0.25557    -0.03036   1.00
O2       0.22693    0.25311    -0.04406   1.00
C3       0.07449    0.20362    -0.01239   1.00
H1       0.02187    0.16416    -0.01055   1.00
C2       0.11410    0.20142    -0.02877   1.00
C5       0.08671    0.41247    -0.00319   1.00
H2       0.08747    0.45075    0.00760   1.00
H2       0.05487    0.36074    0.00356   1.00
C5       0.05424    0.41662    -0.02291   1.00
H2       0.05522    0.37972    -0.03389   1.00
H2       0.08609    0.46866    -0.02941   1.00
C5       -0.01910   0.40116    -0.01941   1.00
H2       -0.02050   0.43752    -0.00835   1.00
H2       -0.05152   0.34835    -0.01358   1.00
H2       -0.04147   0.40591    -0.03390   1.00
C5       0.06582    0.23077    0.03471   1.00
C5       0.22689    0.28620    -0.06224   1.00
H2       0.11861    0.26121    0.04072   1.00
H2       0.05367    0.17690    0.03272   1.00
H2       0.24439    0.34101    -0.05922   1.00
H2       0.17510    0.26313    -0.06929   1.00
H2       0.21939    0.22350    -0.10391   1.00
H2       0.08203    0.26560    0.07728   1.00
H2       0.03646    0.17408    0.07291   1.00
C2       0.24318    0.47733    0.04182   1.00
C3       0.25479    0.42248    0.04536   1.00
O2       0.27438    0.41282    0.06432   1.00
C3       0.20964    0.47736    0.02371   1.00
H1       0.20155    0.51946    0.02030   1.00
C3a      0.23140    0.36868    0.03119   1.00
H1       0.23722    0.32521    0.03468   1.00
C3b      0.18452    0.42274    0.00997   1.00
C4       0.19517    0.36775    0.01366   1.00
O_3      0.05809    0.25850    0.01641   1.00
C5       0.34497    0.43610    0.06458   1.00
H2       0.35866    0.40833    0.05322   1.00
C5       0.36234    0.42261    0.08590   1.00
H2       0.37507    0.49177    0.06126   1.00
H2       0.34748    0.36783    0.08698   1.00
H2       0.32934    0.43056    0.09679   1.00
C5       0.43825    0.46858    0.09134   1.00
H2       0.47053    0.46403    0.07945   1.00
H2       0.45004    0.45342    0.10620   1.00
H2       0.45186    0.52314    0.09285   1.00
C5       0.01660    0.23264    0.05007   1.00
H2       -0.03624   0.19318    0.04580   1.00
H2       0.01937    0.28304    0.04885   1.00
C5       0.03314    0.22138    0.07189   1.00
H2       -0.00773   0.21596    0.08237   1.00
C5       0.04978    0.75284    -0.08295   1.00
H2       -0.00247   0.74345    -0.07995   1.00
H2       0.04633    0.70224    -0.08196   1.00
C5       0.07249    0.78321    -0.10446   1.00
H2       0.05103    0.74229    -0.11616   1.00
H2       0.12913    0.81100    -0.10554   1.00
O_3      0.28158    0.87093    -0.00301   1.00
C4       0.14254    0.83127    -0.00027   1.00
C3c      0.11279    0.79713    -0.01848   1.00
H1       0.11145    0.74982    -0.02197   1.00
C3d      0.14289    0.89233    0.00411   1.00
C3       0.08530    0.82368    -0.03256   1.00
O2       0.04972    0.78342    -0.04882   1.00
C3       0.11673    0.91957    -0.01005   1.00
H1       0.12030    0.96775    -0.00635   1.00
C2       0.08712    0.88608    -0.02864   1.00
C5       0.32464    0.93652    0.00509   1.00
H2       0.35970    0.93627    0.01691   1.00
H2       0.29435    0.95797    0.01196   1.00
C5       0.36727    0.98230    -0.01222   1.00
H2       0.33223    0.98104    -0.02429   1.00
H2       0.39776    0.96075    -0.01885   1.00
C5       0.41404    1.05555    -0.00485   1.00
H2       0.44884    1.05712    0.00731   1.00
H2       0.38355    1.07793    0.00112   1.00
H2       0.44586    1.08789    -0.01761   1.00
C5       0.13088    0.90779    0.03773   1.00
C5       0.09382    0.79884    -0.06563   1.00
H2       0.11377    0.85368    0.04144   1.00
H2       0.08504    0.91275    0.03474   1.00
H2       0.13543    0.78781    -0.06192   1.00
H2       0.11842    0.85369    -0.07019   1.00
H2       0.05339    0.81886    -0.10824   1.00
H2       0.13338    0.87339    0.07979   1.00
H2       0.07804    0.90876    0.07525   1.00
C2       0.23381    0.75716    0.04206   1.00
C3       0.16322    0.73378    0.04305   1.00
O2       0.12648    0.70114    0.06021   1.00
C3       0.27220    0.80251    0.02626   1.00
H1       0.32598    0.81996    0.02477   1.00
C3a      0.13324    0.75725    0.02876   1.00
H1       0.07997    0.74193    0.03042   1.00
C3b      0.24268    0.82745    0.01247   1.00
C4       0.17273    0.80499    0.01366   1.00
O_3      0.17611    0.93052    0.02108   1.00
C5       0.08870    0.63007    0.05696   1.00
H2       0.05234    0.61708    0.04405   1.00
C5       0.04870    0.59788    0.07646   1.00
H2       0.12311    0.60927    0.05370   1.00
H2       0.00282    0.60388    0.07663   1.00
H2       0.08122    0.62828    0.08943   1.00
C5       0.02797    0.52215    0.07873   1.00
H2       0.00022    0.49362    0.06493   1.00
H2       -0.00577   0.49908    0.09215   1.00
H2       0.07349    0.51603    0.08117   1.00
C5       0.16913    0.95196    0.05588   1.00
H2       0.17582    1.00368    0.05358   1.00
H2       0.22111    0.95810    0.05615   1.00
C5       0.13201    0.92073    0.07600   1.00
H2       0.15741    0.95747    0.08860   1.00
C5       0.08167    0.30444    0.41412   1.00
H2       0.11263    0.28117    0.40948   1.00
H2       0.11477    0.36020    0.41175   1.00
C5       0.01731    0.27630    0.40061   1.00
H2       0.02944    0.30366    0.38582   1.00
H2       -0.02291   0.28236    0.40843   1.00
O_3      0.06184    0.35894    0.51718   1.00
C4       0.14376    0.31156    0.49961   1.00
C3c      0.14369    0.32294    0.47868   1.00
H1       0.16620    0.37451    0.47300   1.00
C3d      0.11504    0.24401    0.50667   1.00
C3       0.11394    0.26836    0.46481   1.00
O2       0.12316    0.28358    0.44444   1.00
C3       0.08422    0.18951    0.49294   1.00
H1       0.06070    0.13852    0.49913   1.00
C2       0.08304    0.20008    0.47174   1.00
C5       0.02044    0.31654    0.53303   1.00
H2       0.02773    0.34531    0.54741   1.00
H2       0.03139    0.27450    0.53612   1.00
C5       -0.05342   0.28597    0.52643   1.00
H2       -0.06025   0.25883    0.51176   1.00
H2       -0.06395   0.32836    0.52357   1.00
C5       -0.10206   0.23704    0.54256   1.00
H2       -0.09518   0.26370    0.55728   1.00
H2       -0.09317   0.19344    0.54492   1.00
H2       -0.15583   0.21638    0.53766   1.00
C5       0.16920    0.23211    0.53421   1.00
C5       0.06764    0.28882    0.43677   1.00
H2       0.21442    0.28377    0.53220   1.00
H2       0.17871    0.19433    0.52614   1.00
H2       0.06462    0.33096    0.44458   1.00
H2       0.01762    0.24101    0.43907   1.00
H2       -0.00310   0.22123    0.39695   1.00
H2       0.26213    0.29029    0.56796   1.00
H2       0.25455    0.21082    0.55904   1.00
C2       0.22652    0.47493    0.54273   1.00
C3       0.26935    0.45442    0.53330   1.00
O2       0.33287    0.47391    0.54125   1.00
C3       0.15719    0.44263    0.53682   1.00
H1       0.12349    0.45837    0.54337   1.00
C3a      0.24200    0.40158    0.51877   1.00
H1       0.27454    0.38382    0.51255   1.00
C3b      0.12967    0.38863    0.52285   1.00
C4       0.17207    0.36759    0.51372   1.00
O_3      0.10920    0.22984    0.52723   1.00
C5       0.38395    0.52811    0.52984   1.00
H2       0.38313    0.51310    0.51366   1.00
C5       0.45254    0.54586    0.53936   1.00
H2       0.37733    0.57366    0.53034   1.00
H2       0.46698    0.50816    0.53399   1.00
H2       0.44462    0.53845    0.55605   1.00
C5       0.50947    0.61913    0.53450   1.00
H2       0.51299    0.62726    0.51782   1.00
H2       0.55960    0.62819    0.54021   1.00
H2       0.49982    0.65779    0.54201   1.00
C5       0.15995    0.21501    0.55673   1.00
H2       0.12263    0.15963    0.55846   1.00
H2       0.13674    0.24316    0.56390   1.00
C5       0.22793    0.23385    0.56719   1.00
H2       0.21834    0.21428    0.58300   1.00
C5       0.72481    0.71824    0.42511   1.00
H2       0.73394    0.76251    0.41561   1.00
H2       0.66995    0.67991    0.42324   1.00
C5       0.76981    0.68923    0.41743   1.00
H2       0.74593    0.65533    0.40410   1.00
H2       0.77701    0.65968    0.42971   1.00
O_3      0.67474    0.73511    0.52863   1.00
C4       0.68821    0.83207    0.49954   1.00
C3c      0.68182    0.80113    0.48058   1.00
H1       0.63413    0.75657    0.47646   1.00
C3d      0.75048    0.89067    0.50450   1.00
C3       0.73672    0.82632    0.46682   1.00
O2       0.72417    0.79857    0.44766   1.00
C3       0.80564    0.91510    0.49099   1.00
H1       0.85313    0.95873    0.49576   1.00
C2       0.80029    0.88398    0.47185   1.00
C5       0.71995    0.76463    0.54513   1.00
H2       0.69283    0.75135    0.55999   1.00
H2       0.74953    0.82134    0.54379   1.00
C5       0.76907    0.73731    0.54485   1.00
H2       0.79478    0.74889    0.52978   1.00
H2       0.73905    0.68074    0.54638   1.00
C5       0.82178    0.76882    0.56194   1.00
H2       0.79644    0.75786    0.57702   1.00
H2       0.85337    0.82506    0.56002   1.00
H2       0.85629    0.74712    0.56177   1.00
C5       0.73894    0.96818    0.52366   1.00
C5       0.73895    0.74487    0.44694   1.00
H2       0.68337    0.94361    0.52049   1.00
H2       0.76700    1.00931    0.51225   1.00
H2       0.70534    0.70357    0.45770   1.00
H2       0.79297    0.76192    0.45118   1.00
H2       0.82078    0.73090    0.41225   1.00
H2       0.65820    1.00351    0.54947   1.00
H2       0.72514    1.07668    0.53614   1.00
C2       0.52572    0.75340    0.54293   1.00
C3       0.52939    0.79924    0.52780   1.00
O2       0.49228    0.83215    0.52969   1.00
C3       0.57466    0.73196    0.54269   1.00
H1       0.57220    0.69556    0.55374   1.00
C3a      0.58221    0.82373    0.51327   1.00
H1       0.58662    0.86176    0.50251   1.00
C3b      0.62839    0.75808    0.52863   1.00
C4       0.63260    0.80445    0.51379   1.00
O_3      0.76106    0.91995    0.52355   1.00
C5       0.43398    0.80088    0.51718   1.00
H2       0.44825    0.80234    0.50089   1.00
C5       0.39641    0.84084    0.51986   1.00
H2       0.39974    0.74672    0.52168   1.00
H2       0.42247    0.88793    0.51047   1.00
H2       0.40277    0.85778    0.53597   1.00
C5       0.32018    0.79889    0.51427   1.00
H2       0.31467    0.77790    0.49871   1.00
H2       0.29600    0.83126    0.51477   1.00
H2       0.29153    0.75619    0.52523   1.00
C5       0.75272    0.99985    0.54473   1.00
H2       0.80874    1.03409    0.54649   1.00
H2       0.73689    0.95826    0.55612   1.00
C5       0.71436    1.03900    0.54845   1.00
H2       0.73107    1.06720    0.56304   1.00
C5       0.27959    1.00239    0.42437   1.00
H2       0.23465    0.96724    0.41510   1.00
H2       0.31723    0.98499    0.42244   1.00
C5       0.30919    1.07614    0.41641   1.00
H2       0.34232    1.08506    0.40295   1.00
H2       0.33971    1.11328    0.42850   1.00
O_3      0.26687    0.94007    0.52811   1.00
C4       0.16792    0.85614    0.49954   1.00
C3c      0.19807    0.87948    0.48043   1.00
H1       0.24200    0.87539    0.47618   1.00
C3d      0.11012    0.86105    0.50466   1.00
C3       0.17290    0.90920    0.46667   1.00
O2       0.19972    0.92316    0.44738   1.00
C3       0.08573    0.89179    0.49115   1.00
H1       0.04277    0.89663    0.49603   1.00
C2       0.11607    0.91635    0.47185   1.00
C5       0.23867    0.95716    0.54465   1.00
H2       0.25234    0.94368    0.55951   1.00
H2       0.18193    0.93069    0.54356   1.00
C5       0.26701    1.03375    0.54408   1.00
H2       0.25501    1.04747    0.52902   1.00
H2       0.32361    1.05965    0.54538   1.00
C5       0.23695    1.05646    0.56121   1.00
H2       0.24833    1.04249    0.57629   1.00
H2       0.18069    1.03245    0.55953   1.00
H2       0.25939    1.11275    0.56082   1.00
C5       0.03275    0.77348    0.52430   1.00
C5       0.25405    0.99126    0.44631   1.00
H2       0.05644    0.74166    0.52114   1.00
H2       -0.00881   0.76044    0.51305   1.00
H2       0.29567    0.99884    0.45693   1.00
H2       0.23797    1.02902    0.45051   1.00
H2       0.26777    1.08596    0.41132   1.00
H2       -0.00292   0.65826    0.55053   1.00
H2       -0.07623   0.65257    0.53743   1.00
C2       0.24669    0.77239    0.54293   1.00
C3       0.19980    0.72993    0.52805   1.00
O2       0.16610    0.65997    0.53023   1.00
C3       0.26910    0.84298    0.54243   1.00
H1       0.30629    0.87711    0.55328   1.00
C3a      0.17526    0.75820    0.51352   1.00
H1       0.13647    0.72444    0.50296   1.00
C3b      0.24295    0.87057    0.52837   1.00
C4       0.19555    0.82814    0.51378   1.00
O_3      0.08172    0.84359    0.52385   1.00
C5       0.19605    0.63161    0.51769   1.00
H2       0.19401    0.64378    0.50139   1.00
C5       0.15529    0.55425    0.52071   1.00
H2       0.25030    0.65101    0.52198   1.00
H2       0.10778    0.53338    0.51152   1.00
H2       0.13911    0.54462    0.53690   1.00
C5       0.19605    0.51874    0.51509   1.00
H2       0.21634    0.53325    0.49942   1.00
H2       0.16304    0.46228    0.51584   1.00
H2       0.23916    0.53271    0.52588   1.00
C5       0.00209    0.75696    0.54551   1.00
H2       -0.03142   0.77956    0.54731   1.00
H2       0.04431    0.78277    0.55670   1.00
C5       -0.03782   0.67965    0.54955   1.00
H2       -0.06525   0.66922    0.56426   1.00
C5       0.05055    0.13159    1.00030   1.00
H2       0.02024    0.07517    1.00151   1.00
H2       0.05176    0.14339    0.98390   1.00
C5       0.01506    0.16354    1.01248   1.00
H2       -0.02709   0.16254    1.00352   1.00
H2       0.05261    0.21729    1.01648   1.00
O_3      0.40431    0.28368    1.00088   1.00
C4       0.31157    0.14244    1.00037   1.00
C3c      0.24781    0.13532    0.99572   1.00
H1       0.23983    0.15189    0.98112   1.00
C3d      0.32060    0.11963    1.01938   1.00
C3       0.19386    0.10779    1.00983   1.00
O2       0.13070    0.09474    1.00333   1.00
C3       0.26741    0.09340    1.03361   1.00
H1       0.27748    0.07882    1.04825   1.00
C2       0.20283    0.08653    1.02924   1.00
C5       0.45282    0.30315    1.01661   1.00
H2       0.50618    0.33222    1.01084   1.00
H2       0.44672    0.25771    1.02505   1.00
C5       0.44126    0.34858    1.03110   1.00
H2       0.38737    0.32021    1.03643   1.00
H2       0.44811    0.39408    1.02257   1.00
C5       0.49053    0.37020    1.04914   1.00
H2       0.54445    0.39813    1.04392   1.00
H2       0.48212    0.32495    1.05808   1.00
H2       0.48233    0.40457    1.05933   1.00
C5       0.39131    0.07503    1.01870   1.00
C5       0.12218    0.15119    1.00767   1.00
H2       0.38923    0.07089    1.00188   1.00
H2       0.35103    0.02569    1.02521   1.00
H2       0.16129    0.19729    0.99942   1.00
H2       0.12763    0.16393    1.02421   1.00
H2       -0.00864   0.13413    1.02668   1.00
H2       0.49385    0.05573    0.99866   1.00
H2       0.44225    -0.01259   1.01630   1.00
C2       0.47984    0.23275    0.95901   1.00
C3       0.43191    0.16240    0.95778   1.00
O2       0.44701    0.11928    0.94706   1.00
C3       0.46882    0.27249    0.97345   1.00
H1       0.50360    0.32679    0.97442   1.00
C3a      0.37575    0.13333    0.97116   1.00
H1       0.34168    0.07876    0.97080   1.00
C3b      0.41413    0.24304    0.98717   1.00
C4       0.36712    0.17293    0.98613   1.00
O_3      0.38382    0.13021    1.02528   1.00
C5       0.41395    0.10353    0.92805   1.00
H2       0.35743    0.07818    0.92984   1.00
C5       0.43223    0.05488    0.91731   1.00
H2       0.43157    0.15042    0.91871   1.00
H2       0.39940    0.00266    0.92352   1.00
H2       0.48567    0.07035    0.92154   1.00
C5       0.42470    0.05491    0.89406   1.00
H2       0.37268    0.04468    0.89016   1.00
H2       0.43282    0.01492    0.88695   1.00
H2       0.46349    0.10470    0.88730   1.00
C5       0.46081    0.08824    1.02584   1.00
H2       0.45879    0.08065    1.04257   1.00
H2       0.49877    0.14283    1.02293   1.00
C5       0.48261    0.04192    1.01501   1.00
H2       0.52986    0.04787    1.02206   1.00
C5       0.70209    0.74663    1.06703   1.00
H2       0.73913    0.74962    1.07860   1.00
H2       0.65784    0.69401    1.06804   1.00
C5       0.67985    0.79944    1.07204   1.00
H2       0.63948    0.77950    1.08392   1.00
H2       0.65995    0.81153    1.05816   1.00
O_3      0.75561    0.68834    0.96684   1.00
C4       0.83198    0.68811    1.00050   1.00
C3c      0.79458    0.68652    1.01769   1.00
H1       0.74489    0.64261    1.02042   1.00
C3d      0.89704    0.74539    0.99737   1.00
C3       0.81999    0.74154    1.03141   1.00
O2       0.78438    0.73287    1.04912   1.00
C3       0.92193    0.80081    1.01079   1.00
H1       0.97104    0.84463    1.00738   1.00
C2       0.88446    0.80035    1.02813   1.00
C5       0.79693    0.73170    0.95113   1.00
H2       0.78724    0.70448    0.93635   1.00
H2       0.85216    0.75446    0.95485   1.00
C5       0.78020    0.78851    0.94884   1.00
H2       0.78804    0.81449    0.96376   1.00
H2       0.72511    0.76526    0.94494   1.00
C5       0.82480    0.83958    0.93248   1.00
H2       0.81758    0.81389    0.91756   1.00
H2       0.87967    0.86457    0.93670   1.00
H2       0.81080    0.87988    0.93071   1.00
C5       0.97351    0.72050    0.98288   1.00
C5       0.73815    0.75711    1.04660   1.00
H2       0.94095    0.66500    0.98593   1.00
H2       1.00995    0.74428    0.99574   1.00
H2       0.70036    0.72745    1.03450   1.00
H2       0.76417    0.81211    1.04212   1.00
H2       0.72330    0.84750    1.07827   1.00
H2       1.00376    0.62810    0.96110   1.00
H2       1.07449    0.68846    0.97672   1.00
C2       0.75426    0.52584    0.95703   1.00
C3       0.78931    0.52289    0.97437   1.00
O2       0.81374    0.47800    0.97511   1.00
C3       0.74282    0.58154    0.95502   1.00
H1       0.71463    0.58440    0.94220   1.00
C3a      0.81341    0.57581    0.98885   1.00
H1       0.84350    0.57478    1.00144   1.00
C3b      0.76874    0.63517    0.96912   1.00
C4       0.80448    0.63270    0.98618   1.00
O_3      0.93366    0.75172    0.97990   1.00
C5       0.77051    0.42083    0.98708   1.00
H2       0.76683    0.43619    1.00292   1.00
C5       0.80155    0.37434    0.98742   1.00
H2       0.71823    0.39263    0.98048   1.00
H2       0.84394    0.39500    0.99866   1.00
H2       0.82506    0.37815    0.97229   1.00
C5       0.74891    0.29953    0.99239   1.00
H2       0.72214    0.29725    1.00675   1.00
H2       0.77433    0.26859    0.99418   1.00
H2       0.71076    0.27538    0.97990   1.00
C5       1.01370    0.72983    0.96348   1.00
H2       1.05441    0.78431    0.96233   1.00
H2       0.97882    0.71920    0.95035   1.00
C5       1.04436    0.68260    0.96278   1.00
H2       1.07900    0.69574    0.94952   1.00
C5       1.00188    0.27932    1.07571   1.00
H2       0.96673    0.23430    1.08496   1.00
H2       0.98438    0.31688    1.07766   1.00
C5       1.07560    0.30899    1.08372   1.00
H2       1.08439    0.34203    1.09719   1.00
H2       1.11279    0.33963    1.07165   1.00
O_3      0.94012    0.26711    0.97195   1.00
C4       0.85614    0.16792    1.00046   1.00
C3c      0.87934    0.19797    1.01959   1.00
H1       0.87513    0.24182    1.02385   1.00
C3d      0.86120    0.11022    0.99532   1.00
C3       0.90905    0.17281    1.03335   1.00
O2       0.92287    0.19951    1.05266   1.00
C3       0.89194    0.08583    1.00883   1.00
H1       0.89690    0.04296    1.00394   1.00
C2       0.91635    0.11608    1.02815   1.00
C5       0.95738    0.23907    0.95540   1.00
H2       0.94395    0.25279    0.94055   1.00
H2       0.93099    0.18232    0.95647   1.00
C5       1.03398    0.26752    0.95601   1.00
H2       1.04766    0.25548    0.97108   1.00
H2       1.05980    0.32413    0.95475   1.00
C5       1.05687    0.23764    0.93888   1.00
H2       1.04295    0.24907    0.92380   1.00
H2       1.03294    0.18138    0.94053   1.00
H2       1.11317    0.26017    0.93930   1.00
C5       0.77381    0.03286    0.97563   1.00
C5       0.99092    0.25392    1.05376   1.00
H2       0.74189    0.05645    0.97878   1.00
H2       0.76077    -0.00875   0.98686   1.00
H2       0.99849    0.29557    1.04316   1.00
H2       1.02877    0.23795    1.04957   1.00
H2       1.08549    0.26760    1.08879   1.00
H2       0.65870    -0.00284   0.94934   1.00
H2       0.65307    -0.07617   0.96241   1.00
C2       0.77239    0.24670    0.95707   1.00
C3       0.72990    0.19968    0.97192   1.00
O2       0.65996    0.16590    0.96971   1.00
C3       0.84301    0.26922    0.95760   1.00
H1       0.87716    0.30651    0.94678   1.00
C3a      0.75817    0.17514    0.98645   1.00
H1       0.72439    0.13626    0.99699   1.00
C3b      0.87060    0.24308    0.97166   1.00
C4       0.82814    0.19555    0.98622   1.00
O_3      0.84389    0.08193    0.97612   1.00
C5       0.63144    0.19568    0.98224   1.00
H2       0.64353    0.19357    0.99855   1.00
C5       0.55410    0.15483    0.97919   1.00
H2       0.65077    0.24994    0.97798   1.00
H2       0.53325    0.10727    0.98836   1.00
H2       0.54459    0.13874    0.96299   1.00
C5       0.51843    0.19544    0.98481   1.00
H2       0.53284    0.21565    1.00049   1.00
H2       0.46200    0.16236    0.98403   1.00
H2       0.53240    0.23860    0.97404   1.00
C5       0.75745    0.00233    0.95440   1.00
H2       0.78015    -0.03109   0.95259   1.00
H2       0.78327    0.04463    0.94323   1.00
C5       0.68017    -0.03767   0.95031   1.00
H2       0.66987    -0.06501   0.93560   1.00
C5       0.64790    1.04695    0.91232   1.00
H2       0.69672    1.09315    0.90823   1.00
H2       0.65646    1.00317    0.91013   1.00
C5       0.63067    1.05167    0.93477   1.00
H2       0.65932    1.03601    0.94509   1.00
H2       0.57503    1.01807    0.93744   1.00
O_3      0.39071    0.91288    0.83959   1.00
C4       0.52406    1.02210    0.83359   1.00
C3c      0.56194    1.02159    0.85039   1.00
H1       0.56970    0.97870    0.85275   1.00
C3d      0.51538    1.07891    0.83063   1.00
C3       0.58947    1.07552    0.86450   1.00
O2       0.63280    1.07539    0.87912   1.00
C3       0.54161    1.13209    0.84486   1.00
H1       0.53160    1.17344    0.84234   1.00
C2       0.57941    1.13204    0.86205   1.00
C5       0.34035    0.92893    0.83379   1.00
H2       0.30357    0.89168    0.82264   1.00
H2       0.36387    0.98087    0.82693   1.00
C5       0.30135    0.92707    0.85275   1.00
H2       0.33836    0.96289    0.86411   1.00
H2       0.27757    0.87483    0.85937   1.00
C5       0.24691    0.94639    0.84790   1.00
H2       0.21006    0.91112    0.83646   1.00
H2       0.27082    0.99942    0.84196   1.00
H2       0.21794    0.94329    0.86186   1.00
C5       0.51331    1.10577    0.79739   1.00
C5       0.59566    1.04354    0.89693   1.00
H2       0.53408    1.07306    0.79217   1.00
H2       0.55658    1.15871    0.79968   1.00
H2       0.55677    0.98937    0.89371   1.00
H2       0.56810    1.06907    0.90313   1.00
H2       0.64580    1.10521    0.93901   1.00
H2       0.50039    1.07058    0.75488   1.00
H2       0.54965    1.16202    0.75923   1.00
C2       0.43261    0.85623    0.79143   1.00
C3       0.50081    0.90864    0.78870   1.00
O2       0.53289    0.91661    0.77028   1.00
C3       0.39709    0.85842    0.80881   1.00
H1       0.34542    0.81815    0.81162   1.00
C3a      0.53108    0.96231    0.80291   1.00
H1       0.58198    1.00404    0.80000   1.00
C3b      0.42660    0.91298    0.82257   1.00
C4       0.49404    0.96558    0.81967   1.00
O_3      0.47424    1.07958    0.81521   1.00
C5       0.57727    0.88984    0.77124   1.00
H2       0.61712    0.91605    0.78314   1.00
C5       0.61154    0.90163    0.75046   1.00
H2       0.54859    0.83414    0.77460   1.00
H2       0.65366    0.95557    0.74963   1.00
H2       0.57330    0.89577    0.73882   1.00
C5       0.63862    0.85249    0.74612   1.00
H2       0.67248    0.85510    0.75871   1.00
H2       0.66811    0.86630    0.73169   1.00
H2       0.59596    0.79880    0.74434   1.00
C5       0.46639    1.10673    0.78102   1.00
H2       0.45513    1.14817    0.78460   1.00
H2       0.41707    1.05775    0.78178   1.00
C5       0.49765    1.11640    0.75969   1.00
H2       0.46548    1.12398    0.74845   1.00
C5       -0.03641   0.58055    0.91627   1.00
H2       -0.07928   0.58992    0.91327   1.00
H2       0.01073    0.63116    0.91528   1.00
C5       -0.04406   0.55020    0.93778   1.00
H2       -0.02461   0.59113    0.94948   1.00
H2       -0.01520   0.52243    0.93887   1.00
O_3      0.07735    0.46244    0.83634   1.00
C4       -0.02205   0.50206    0.83360   1.00
C3c      -0.01768   0.53622    0.85181   1.00
H1       0.02828    0.58353    0.85529   1.00
C3d      -0.08276   0.44099    0.82922   1.00
C3       -0.07172   0.50967    0.86589   1.00
O2       -0.06705   0.54994    0.88214   1.00
C3       -0.13616   0.41375    0.84338   1.00
H1       -0.18077   0.36556    0.83968   1.00
C2       -0.13229   0.44725    0.86197   1.00
C5       0.05483    0.39684    0.82826   1.00
H2       0.09015    0.39710    0.81643   1.00
H2       0.00309    0.37537    0.82138   1.00
C5       0.05169    0.35108    0.84557   1.00
H2       0.01791    0.35234    0.85764   1.00
H2       0.10373    0.37265    0.85220   1.00
C5       0.02524    0.27783    0.83821   1.00
H2       0.05847    0.27626    0.82605   1.00
H2       -0.02764   0.25543    0.83223   1.00
H2       0.02472    0.24550    0.85097   1.00
C5       -0.11023   0.42549    0.79561   1.00
C5       -0.03836   0.53454    0.89896   1.00
H2       -0.07324   0.47960    0.79189   1.00
H2       -0.16104   0.42052    0.79859   1.00
H2       0.01428    0.54558    0.89525   1.00
H2       -0.06860   0.47969    0.90352   1.00
H2       -0.09881   0.51454    0.94157   1.00
H2       -0.07334   0.45986    0.75355   1.00
H2       -0.16405   0.42447    0.75808   1.00
C2       0.14332    0.57617    0.79127   1.00
C3       0.09610    0.59954    0.79028   1.00
O2       0.09199    0.63215    0.77311   1.00
C3       0.13638    0.53084    0.80708   1.00
H1       0.17271    0.51340    0.80857   1.00
C3a      0.04265    0.57606    0.80457   1.00
H1       0.00469    0.59137    0.80290   1.00
C3b      0.08191    0.50589    0.82087   1.00
C4       0.03441    0.52835    0.81967   1.00
O_3      -0.08772   0.40279    0.81225   1.00
C5       0.12526    0.70322    0.77635   1.00
H2       0.10189    0.71622    0.78926   1.00
C5       0.11745    0.73539    0.75686   1.00
H2       0.18047    0.72404    0.77962   1.00
H2       0.06555    0.72937    0.75668   1.00
H2       0.11957    0.70498    0.74388   1.00
C5       0.17243    0.81112    0.75458   1.00
H2       0.17319    0.83965    0.76838   1.00
H2       0.16174    0.83417    0.74116   1.00
H2       0.22408    0.81726    0.75214   1.00
C5       -0.11614   0.38131    0.77745   1.00
H2       -0.16116   0.32959    0.77976   1.00
H2       -0.07029   0.37519    0.77719   1.00
C5       -0.12204   0.41251    0.75734   1.00
H2       -0.13337   0.37577    0.74474   1.00
C5       0.41904    0.38245    0.91621   1.00
H2       0.40979    0.33026    0.91318   1.00
H2       0.36839    0.37888    0.91519   1.00
C5       0.44923    0.40505    0.93774   1.00
H2       0.40822    0.38343    0.94941   1.00
H2       0.47690    0.46168    0.93885   1.00
O_3      0.53728    0.61481    0.83641   1.00
C4       0.49794    0.47587    0.83360   1.00
C3c      0.46370    0.44594    0.85179   1.00
H1       0.41631    0.44447    0.85525   1.00
C3d      0.55910    0.47640    0.82925   1.00
C3       0.49024    0.41845    0.86586   1.00
O2       0.44990    0.38270    0.88209   1.00
C3       0.58634    0.45024    0.84341   1.00
H1       0.63460    0.45395    0.83973   1.00
C2       0.55275    0.42046    0.86197   1.00
C5       0.60291    0.65804    0.82836   1.00
H2       0.60266    0.69314    0.81655   1.00
H2       0.62452    0.62789    0.82148   1.00
C5       0.64852    0.70061    0.84571   1.00
H2       0.64726    0.66552    0.85777   1.00
H2       0.62682    0.73096    0.85234   1.00
C5       0.72179    0.74755    0.83839   1.00
H2       0.72337    0.78241    0.82625   1.00
H2       0.74433    0.71720    0.83242   1.00
H2       0.75401    0.77933    0.85118   1.00
C5       0.57487    0.46468    0.79563   1.00
C5       0.46511    0.42666    0.89893   1.00
H2       0.52076    0.44749    0.79189   1.00
H2       0.57992    0.41889    0.79860   1.00
H2       0.45399    0.46822    0.89523   1.00
H2       0.51993    0.45134    0.90352   1.00
H2       0.48495    0.38604    0.94153   1.00
H2       0.54072    0.46739    0.75356   1.00
H2       0.57624    0.41218    0.75808   1.00
C2       0.42383    0.56714    0.79128   1.00
C3       0.40060    0.49660    0.79024   1.00
O2       0.36813    0.45994    0.77305   1.00
C3       0.46902    0.60549    0.80711   1.00
H1       0.48635    0.65924    0.80863   1.00
C3a      0.42407    0.46661    0.80453   1.00
H1       0.40887    0.41338    0.80284   1.00
C3b      0.49397    0.57597    0.82090   1.00
C4       0.47165    0.50605    0.81967   1.00
O_3      0.59739    0.50979    0.81231   1.00
C5       0.29705    0.42201    0.77625   1.00
H2       0.28403    0.38557    0.78915   1.00
C5       0.26506    0.38212    0.75673   1.00
H2       0.27611    0.45630    0.77953   1.00
H2       0.27118    0.33631    0.75654   1.00
H2       0.29551    0.41476    0.74378   1.00
C5       0.18931    0.36125    0.75441   1.00
H2       0.16071    0.33336    0.76820   1.00
H2       0.16639    0.32758    0.74097   1.00
H2       0.18308    0.40671    0.75199   1.00
C5       0.61912    0.50312    0.77751   1.00
H2       0.67088    0.50992    0.77984   1.00
H2       0.62515    0.55505    0.77727   1.00
C5       0.58810    0.46612    0.75737   1.00
H2       0.62491    0.49166    0.74479   1.00
C5       0.63678    0.40165    0.34243   1.00
H2       0.65794    0.36954    0.33706   1.00
H2       0.63650    0.39886    0.35926   1.00
C5       0.68325    0.47602    0.33526   1.00
H2       0.72812    0.50336    0.34547   1.00
H2       0.65411    0.50363    0.33509   1.00
O_3      0.28394    0.25849    0.34228   1.00
C4       0.35495    0.18949    0.33289   1.00
C3c      0.42244    0.23264    0.33924   1.00
H1       0.43333    0.24425    0.35517   1.00
C3d      0.34199    0.17422    0.31209   1.00
C3       0.47659    0.26216    0.32522   1.00
O2       0.54200    0.29699    0.33275   1.00
C3       0.39561    0.20456    0.29806   1.00
H1       0.38286    0.19326    0.28220   1.00
C2       0.46406    0.24891    0.30419   1.00
C5       0.23665    0.25089    0.32710   1.00
H2       0.18421    0.23068    0.33329   1.00
H2       0.23442    0.21576    0.31488   1.00
C5       0.26013    0.32088    0.31805   1.00
H2       0.31327    0.34191    0.31237   1.00
H2       0.26155    0.35535    0.33034   1.00
C5       0.21268    0.31687    0.30084   1.00
H2       0.15944    0.29546    0.30637   1.00
H2       0.21306    0.28436    0.28824   1.00
H2       0.22979    0.36870    0.29471   1.00
C5       0.25552    0.06632    0.30560   1.00
C5       0.56360    0.36717    0.33437   1.00
H2       0.25541    0.04926    0.32142   1.00
H2       0.28951    0.05473    0.29621   1.00
H2       0.53006    0.37489    0.34515   1.00
H2       0.56184    0.39011    0.31951   1.00
H2       0.70409    0.47774    0.31976   1.00
H2       0.13804    -0.05901   0.31883   1.00
H2       0.18133    -0.07120   0.29740   1.00
C2       0.18722    0.10434    0.37449   1.00
C3       0.22439    0.07062    0.37083   1.00
O2       0.19788    0.00326    0.37635   1.00
C3       0.20890    0.16787    0.36492   1.00
H1       0.18262    0.19581    0.36781   1.00
C3a      0.28057    0.09979    0.35745   1.00
H1       0.30608    0.07148    0.35391   1.00
C3b      0.26342    0.19567    0.35112   1.00
C4       0.29967    0.16158    0.34726   1.00
O_3      0.27594    0.13624    0.30490   1.00
C5       0.22884    -0.00131   0.39440   1.00
H2       0.28516    0.02209    0.39252   1.00
C5       0.19769    -0.07721   0.39928   1.00
H2       0.21875    0.02470    0.40717   1.00
H2       0.22293    -0.09845   0.38961   1.00
H2       0.14318    -0.10312   0.39455   1.00
C5       0.20383    -0.09076   0.42190   1.00
H2       0.25794    -0.06027   0.42675   1.00
H2       0.18590    -0.14574   0.42454   1.00
H2       0.17154    -0.07762   0.43161   1.00
C5       0.18330    0.02677    0.29722   1.00
H2       0.18539    0.03497    0.28051   1.00
H2       0.15327    0.04895    0.30374   1.00
C5       0.14881    -0.04976   0.30226   1.00
H2       0.09926    -0.07794   0.29416   1.00
C5       0.59621    0.37588    0.33596   1.00
H2       0.57452    0.38167    0.32149   1.00
H2       0.57054    0.38848    0.34818   1.00
C5       0.58049    0.30135    0.33813   1.00
H2       0.52771    0.26797    0.34387   1.00
H2       0.61724    0.29890    0.34882   1.00
O_3      0.91043    0.64463    0.36661   1.00
C4       0.83509    0.64544    0.33276   1.00
C3c      0.76975    0.58824    0.33500   1.00
H1       0.73812    0.58561    0.34764   1.00
C3d      0.87510    0.64830    0.31602   1.00
C3       0.74458    0.53336    0.32123   1.00
O2       0.67732    0.48315    0.32298   1.00
C3       0.85070    0.59316    0.30250   1.00
H1       0.88416    0.59659    0.29030   1.00
C2       0.78504    0.53460    0.30467   1.00
C5       0.97836    0.66379    0.36166   1.00
H2       1.01604    0.70703    0.37115   1.00
H2       0.98948    0.67901    0.34540   1.00
C5       0.98723    0.60249    0.36544   1.00
H2       0.94831    0.55872    0.35639   1.00
H2       0.97663    0.58814    0.38176   1.00
C5       1.05932    0.61820    0.35973   1.00
H2       1.09847    0.66216    0.36860   1.00
H2       1.06910    0.63021    0.34328   1.00
H2       1.06531    0.57331    0.36302   1.00
C5       0.94225    0.75538    0.30334   1.00
C5       0.67213    0.42948    0.33522   1.00
H2       0.91409    0.77613    0.31178   1.00
H2       0.91926    0.73931    0.28794   1.00
H2       0.69155    0.44863    0.35080   1.00
H2       0.70230    0.40664    0.32907   1.00
H2       0.58335    0.27979    0.32314   1.00
H2       1.00616    0.90168    0.30731   1.00
H2       0.99177    0.87356    0.28104   1.00
C2       0.91745    0.81038    0.37534   1.00
C3       0.87678    0.81011    0.35907   1.00
O2       0.87693    0.86906    0.35369   1.00
C3       0.92717    0.75369    0.37768   1.00
H1       0.95657    0.75153    0.39028   1.00
C3a      0.84853    0.75482    0.34537   1.00
H1       0.82078    0.75719    0.33235   1.00
C3b      0.90084    0.69982    0.36366   1.00
C4       0.86129    0.70012    0.34732   1.00
O_3      0.94165    0.70101    0.31397   1.00
C5       0.81776    0.86763    0.36108   1.00
H2       0.77060    0.82317    0.35485   1.00
C5       0.82120    0.93386    0.35421   1.00
H2       0.81566    0.86471    0.37796   1.00
H2       0.80479    0.92806    0.33807   1.00
H2       0.87578    0.97474    0.35458   1.00
C5       0.77757    0.95357    0.36745   1.00
H2       0.72443    0.91011    0.36821   1.00
H2       0.77678    0.99861    0.36100   1.00
H2       0.79878    0.96802    0.38314   1.00
C5       1.01633    0.81145    0.30113   1.00
H2       1.04146    0.79465    0.28983   1.00
H2       1.04249    0.81709    0.31592   1.00
C5       1.02271    0.87988    0.29483   1.00
H2       1.07676    0.91750    0.29132   1.00
C5       0.76852    0.39682    0.33752   1.00
H2       0.79736    0.42102    0.32342   1.00
H2       0.80499    0.42197    0.35019   1.00
C5       0.70760    0.40947    0.33938   1.00
H2       0.72445    0.46115    0.34565   1.00
H2       0.66790    0.37054    0.34951   1.00
O_3      0.73187    0.08381    0.36548   1.00
C4       0.81039    0.16495    0.33276   1.00
C3c      0.81563    0.22889    0.33554   1.00
H1       0.84235    0.25942    0.34862   1.00
C3d      0.77621    0.12641    0.31547   1.00
C3       0.78590    0.25401    0.32177   1.00
O2       0.80022    0.32027    0.32413   1.00
C3       0.74544    0.15069    0.30193   1.00
H1       0.71769    0.11827    0.28928   1.00
C2       0.74961    0.21491    0.30463   1.00
C5       0.68561    0.01599    0.35968   1.00
H2       0.69175    -0.02183   0.36892   1.00
H2       0.69222    0.00735    0.34338   1.00
C5       0.61395    0.00390    0.36289   1.00
H2       0.60844    0.04290    0.35411   1.00
H2       0.60772    0.01203    0.37924   1.00
C5       0.56021    -0.06822   0.35625   1.00
H2       0.56572    -0.10742   0.36486   1.00
H2       0.56488    -0.07560   0.33976   1.00
H2       0.50818    -0.07661   0.35912   1.00
C5       0.82132    0.06402    0.30259   1.00
C5       0.74908    0.32176    0.33606   1.00
H2       0.86900    0.09253    0.31158   1.00
H2       0.82925    0.08874    0.28742   1.00
H2       0.74777    0.30079    0.35147   1.00
H2       0.69704    0.29083    0.32931   1.00
H2       0.68461    0.40755    0.32421   1.00
H2       0.90761    0.00447    0.30668   1.00
H2       0.89614    0.02130    0.28043   1.00
C2       0.89301    0.08246    0.37528   1.00
C3       0.93445    0.12599    0.35962   1.00
O2       0.99508    0.12898    0.35466   1.00
C3       0.82541    0.06989    0.37708   1.00
H1       0.79297    0.03823    0.38921   1.00
C3a      0.90730    0.15421    0.34595   1.00
H1       0.93840    0.18426    0.33336   1.00
C3b      0.79789    0.09627    0.36307   1.00
C4       0.83880    0.13867    0.34732   1.00
O_3      0.76518    0.06102    0.31284   1.00
C5       1.05056    0.18831    0.36290   1.00
H2       1.05205    0.23532    0.35705   1.00
C5       1.11557    0.18843    0.35646   1.00
H2       1.04761    0.18818    0.37977   1.00
H2       1.12764    0.20697    0.34053   1.00
H2       1.10389    0.13445    0.35633   1.00
C5       1.17673    0.23205    0.37047   1.00
H2       1.18426    0.28433    0.37168   1.00
H2       1.22422    0.23556    0.36436   1.00
H2       1.16886    0.20905    0.38594   1.00
C5       0.80638    -0.00888   0.29971   1.00
H2       0.76604    -0.03376   0.28793   1.00
H2       0.78479    -0.03719   0.31414   1.00
C5       0.87070    -0.01172   0.29381   1.00
H2       0.85667    -0.06481   0.28978   1.00
C5       0.84197    0.63873    0.74600   1.00
H2       0.85903    0.60053    0.74659   1.00
H2       0.88924    0.68929    0.74523   1.00
C5       0.79795    0.62657    0.72682   1.00
H2       0.83073    0.64969    0.71323   1.00
H2       0.76473    0.64937    0.72887   1.00
O_3      0.75467    0.73094    0.83707   1.00
C4       0.81018    0.64467    0.83302   1.00
C3c      0.83377    0.65265    0.81295   1.00
H1       0.87496    0.70148    0.80798   1.00
C3d      0.75711    0.58036    0.83927   1.00
C3       0.80422    0.59847    0.79895   1.00
O2       0.83535    0.60765    0.78037   1.00
C3       0.72671    0.52667    0.82526   1.00
H1       0.68456    0.47898    0.83055   1.00
C2       0.74944    0.53407    0.80485   1.00
C5       0.69437    0.70145    0.84877   1.00
H2       0.69754    0.73461    0.86171   1.00
H2       0.68290    0.65097    0.85499   1.00
C5       0.63636    0.69152    0.83497   1.00
H2       0.63442    0.65996    0.82174   1.00
H2       0.64805    0.74229    0.82900   1.00
C5       0.56815    0.65730    0.84635   1.00
H2       0.56989    0.68830    0.85966   1.00
H2       0.55529    0.60561    0.85170   1.00
H2       0.52662    0.65183    0.83614   1.00
C5       0.76548    0.55426    0.87217   1.00
C5       0.80520    0.63132    0.76614   1.00
H2       0.81937    0.59604    0.87342   1.00
H2       0.76488    0.50651    0.86761   1.00
H2       0.81232    0.68164    0.77105   1.00
H2       0.74914    0.59564    0.76439   1.00
H2       0.76544    0.57091    0.72351   1.00
H2       0.82281    0.59485    0.91232   1.00
H2       0.79469    0.50598    0.90684   1.00
C2       0.89272    0.80945    0.87566   1.00
C3       0.92362    0.76909    0.87311   1.00
O2       0.96878    0.77050    0.88742   1.00
C3       0.83659    0.79613    0.86315   1.00
H1       0.81291    0.82724    0.86436   1.00
C3a      0.89706    0.71587    0.85870   1.00
H1       0.91883    0.68297    0.85775   1.00
C3b      0.80894    0.74179    0.84930   1.00
C4       0.83906    0.70105    0.84700   1.00
O_3      0.72861    0.57123    0.85839   1.00
C5       1.03644    0.81089    0.88050   1.00
H2       1.04485    0.79054    0.86602   1.00
C5       1.08306    0.80893    0.89697   1.00
H2       1.04904    0.86463    0.87799   1.00
H2       1.08349    0.76015    0.89553   1.00
H2       1.05928    0.80724    0.91191   1.00
C5       1.15626    0.87025    0.89597   1.00
H2       1.17721    0.87430    0.88047   1.00
H2       1.18996    0.86411    0.90703   1.00
H2       1.15761    0.91892    0.89995   1.00
C5       0.73163    0.54349    0.89285   1.00
H2       0.68211    0.49467    0.89250   1.00
H2       0.71961    0.58501    0.89535   1.00
C5       0.77738    0.54317    0.91007   1.00
H2       0.74848    0.52818    0.92457   1.00
C5       0.58899    0.43492    0.82325   1.00
H2       0.62699    0.41780    0.82463   1.00
H2       0.58500    0.45296    0.83858   1.00
C5       0.61467    0.49395    0.80772   1.00
H2       0.65194    0.54327    0.81488   1.00
H2       0.57096    0.49811    0.80171   1.00
O_3      0.24527    0.18715    0.82675   1.00
C4       0.35522    0.16433    0.83300   1.00
C3c      0.41304    0.22912    0.83546   1.00
H1       0.41633    0.26016    0.84834   1.00
C3d      0.35238    0.12429    0.81626   1.00
C3       0.46682    0.25526    0.82130   1.00
O2       0.52519    0.31529    0.82600   1.00
C3       0.40526    0.15070    0.80193   1.00
H1       0.39971    0.11911    0.78896   1.00
C2       0.46375    0.21642    0.80407   1.00
C5       0.19898    0.14328    0.81197   1.00
H2       0.14571    0.11448    0.81784   1.00
H2       0.21361    0.10570    0.80652   1.00
C5       0.20087    0.18706    0.79425   1.00
H2       0.25445    0.21729    0.78875   1.00
H2       0.18556    0.22394    0.79983   1.00
C5       0.15357    0.14297    0.77710   1.00
H2       0.10006    0.11228    0.78252   1.00
H2       0.17023    0.10776    0.77104   1.00
H2       0.15449    0.17595    0.76447   1.00
C5       0.29835    0.01012    0.82279   1.00
C5       0.52185    0.37100    0.81760   1.00
H2       0.30038    0.01809    0.83948   1.00
H2       0.34400    0.00690    0.81810   1.00
H2       0.47781    0.37365    0.82416   1.00
H2       0.51513    0.36704    0.80075   1.00
H2       0.64199    0.48597    0.79482   1.00
H2       0.21039    -0.10549   0.84789   1.00
H2       0.27023    -0.11921   0.83310   1.00
C2       0.18667    0.08516    0.87427   1.00
C3       0.24294    0.07620    0.87828   1.00
O2       0.23760    0.02853    0.89230   1.00
C3       0.18919    0.12346    0.85700   1.00
H1       0.14772    0.13273    0.85380   1.00
C3a      0.29898    0.10379    0.86485   1.00
H1       0.33989    0.09318    0.86749   1.00
C3b      0.24400    0.14895    0.84332   1.00
C4       0.29943    0.13911    0.84716   1.00
O_3      0.29442    0.06239    0.81232   1.00
C5       0.26932    0.06087    0.91066   1.00
H2       0.32452    0.09850    0.90832   1.00
C5       0.26224    0.00500    0.92520   1.00
H2       0.24415    0.08785    0.91737   1.00
H2       0.30184    -0.00855   0.92130   1.00
H2       0.21194    -0.04124   0.92217   1.00
C5       0.26806    0.02600    0.94769   1.00
H2       0.31608    0.07509    0.95010   1.00
H2       0.26843    -0.01346   0.95768   1.00
H2       0.22363    0.03136    0.95253   1.00
C5       0.23435    -0.05692   0.81771   1.00
H2       0.23825    -0.07062   0.80174   1.00
H2       0.18985    -0.04865   0.81843   1.00
C5       0.22368    -0.11449   0.83232   1.00
H2       0.18084    -0.16392   0.82692   1.00
C5       0.57554    0.18127    0.82926   1.00
H2       0.59819    0.23753    0.82917   1.00
H2       0.56163    0.16522    0.84529   1.00
C5       0.51120    0.14829    0.81567   1.00
H2       0.46633    0.14381    0.82397   1.00
H2       0.49983    0.09662    0.81076   1.00
O_3      0.79735    0.05224    0.82995   1.00
C4       0.83575    0.19089    0.83297   1.00
C3c      0.77534    0.19206    0.83681   1.00
H1       0.74780    0.17077    0.85078   1.00
C3d      0.87139    0.21979    0.81481   1.00
C3       0.74904    0.21963    0.82268   1.00
O2       0.69446    0.22653    0.82853   1.00
C3       0.84465    0.24609    0.80054   1.00
H1       0.87249    0.26551    0.78652   1.00
C2       0.78323    0.24701    0.80408   1.00
C5       0.83283    0.03974    0.81448   1.00
H2       0.85905    0.01252    0.82025   1.00
H2       0.87184    0.08831    0.80726   1.00
C5       0.78100    -0.00472   0.79858   1.00
H2       0.75345    0.02161    0.79322   1.00
H2       0.74269    -0.05331   0.80591   1.00
C5       0.81576    -0.01884   0.78077   1.00
H2       0.84377    -0.04470   0.78603   1.00
H2       0.85231    0.02947    0.77300   1.00
H2       0.77692    -0.05263   0.76952   1.00
C5       0.98704    0.27143    0.81786   1.00
C5       0.63286    0.16847    0.82249   1.00
H2       0.98482    0.27151    0.83471   1.00
H2       0.99387    0.32083    0.81212   1.00
H2       0.62747    0.12190    0.83002   1.00
H2       0.63030    0.15968    0.80573   1.00
H2       0.51806    0.18024    0.80197   1.00
H2       1.10693    0.29478    0.83998   1.00
H2       1.12278    0.36560    0.82351   1.00
C2       0.91421    0.10094    0.87429   1.00
C3       0.93130    0.16963    0.87675   1.00
O2       0.98550    0.21289    0.88889   1.00
C3       0.86835    0.06239    0.85861   1.00
H1       0.85287    0.00921    0.85666   1.00
C3a      0.90400    0.19845    0.86335   1.00
H1       0.92061    0.25211    0.86471   1.00
C3b      0.84301    0.09180    0.84491   1.00
C4       0.86087    0.16036    0.84718   1.00
O_3      0.92824    0.21530    0.80963   1.00
C5       0.96172    0.22199    0.90775   1.00
H2       0.92773    0.24414    0.90579   1.00
C5       1.02448    0.27123    0.92012   1.00
H2       0.93305    0.17262    0.91602   1.00
H2       1.04171    0.32414    0.91488   1.00
H2       1.06613    0.26050    0.91630   1.00
C5       1.01111    0.26502    0.94317   1.00
H2       0.96600    0.27052    0.94653   1.00
H2       1.05594    0.30534    0.95151   1.00
H2       1.00223    0.21497    0.94911   1.00
C5       1.04818    0.26502    0.81146   1.00
H2       1.05731    0.27673    0.79497   1.00
H2       1.03480    0.21085    0.81342   1.00
C5       1.11235    0.31210    0.82389   1.00
H2       1.15733    0.31141    0.81744   1.00
C5       -0.04359   0.36099    0.41357   1.00
H2       -0.05821   0.39552    0.42120   1.00
H2       0.01228    0.38431    0.41586   1.00
C5       -0.08185   0.28965    0.42357   1.00
H2       -0.05577   0.28852    0.43776   1.00
H2       -0.08419   0.25041    0.41291   1.00
O_3      0.00468    0.39165    0.30900   1.00
C4       -0.02163   0.47717    0.33376   1.00
C3c      -0.01238   0.46236    0.35380   1.00
H1       0.03755    0.47321    0.35878   1.00
C3d      -0.08689   0.46354    0.32767   1.00
C3       -0.06716   0.43261    0.36760   1.00
O2       -0.05263   0.42731    0.38756   1.00
C3       -0.14181   0.43272    0.34125   1.00
H1       -0.19140   0.42100    0.33568   1.00
C2       -0.13351   0.41672    0.36151   1.00
C5       -0.04050   0.36509    0.29239   1.00
H2       -0.01301   0.37609    0.27761   1.00
H2       -0.07542   0.38651    0.29184   1.00
C5       -0.08252   0.28826    0.29507   1.00
H2       -0.10848   0.27727    0.31009   1.00
H2       -0.04720   0.26737    0.29540   1.00
C5       -0.13490   0.25539    0.27795   1.00
H2       -0.10936   0.26657    0.26290   1.00
H2       -0.17165   0.27447    0.27805   1.00
H2       -0.16409   0.19910    0.27993   1.00
C5       -0.08559   0.53999    0.30488   1.00
C5       -0.05935   0.36262    0.39106   1.00
H2       -0.03092   0.57719    0.30781   1.00
H2       -0.11745   0.55235    0.31499   1.00
H2       -0.02234   0.35618    0.38147   1.00
H2       -0.11155   0.31975    0.38736   1.00
H2       -0.13480   0.27607    0.42803   1.00
H2       -0.01427   0.64827    0.27577   1.00
H2       -0.08648   0.64976    0.28726   1.00
C2       0.14115    0.56048    0.29046   1.00
C3       0.13116    0.60425    0.30346   1.00
O2       0.16136    0.67297    0.29922   1.00
C3       0.09852    0.48922    0.29283   1.00
H1       0.10600    0.45433    0.28347   1.00
C3a      0.07837    0.57633    0.31801   1.00
H1       0.06889    0.61055    0.32706   1.00
C3b      0.04470    0.46167    0.30687   1.00
C4       0.03415    0.50526    0.31957   1.00
O_3      -0.09981   0.47236    0.30771   1.00
C5       0.21908    0.71029    0.31166   1.00
H2       0.20501    0.70250    0.32807   1.00
C5       0.24882    0.78567    0.30629   1.00
H2       0.25812    0.69498    0.30884   1.00
H2       0.21812    0.80489    0.31408   1.00
H2       0.24133    0.78868    0.28970   1.00
C5       0.32484    0.82956    0.31192   1.00
H2       0.33210    0.82175    0.32817   1.00
H2       0.34307    0.88465    0.30939   1.00
H2       0.35744    0.81655    0.30232   1.00
C5       -0.10170   0.54691    0.28289   1.00
H2       -0.15810   0.51865    0.28091   1.00
H2       -0.08112   0.52123    0.27311   1.00
C5       -0.07108   0.62201    0.27651   1.00
H2       -0.08971   0.62500    0.26117   1.00
C5       0.38646    1.05668    0.40875   1.00
H2       0.43122    1.06629    0.41809   1.00
H2       0.34863    1.00169    0.41067   1.00
C5       0.35703    1.10107    0.41664   1.00
H2       0.32368    1.07695    0.43007   1.00
H2       0.32678    1.10786    0.40450   1.00
O_3      0.40035    1.00697    0.30507   1.00
C4       0.49875    1.02155    0.33379   1.00
C3c      0.46838    1.01485    0.35286   1.00
H1       0.42427    0.96693    0.35707   1.00
C3d      0.55677    1.08413    0.32871   1.00
C3       0.49355    1.06974    0.36662   1.00
O2       0.46647    1.05697    0.38588   1.00
C3       0.58117    1.13928    0.34222   1.00
H1       0.62432    1.18699    0.33737   1.00
C2       0.55061    1.13361    0.36148   1.00
C5       0.42892    1.05223    0.28854   1.00
H2       0.41536    1.02509    0.27369   1.00
H2       0.48566    1.08231    0.28970   1.00
C5       0.40086    1.10073    0.28903   1.00
H2       0.41274    1.12644    0.30410   1.00
H2       0.34427    1.07021    0.28767   1.00
C5       0.43133    1.15348    0.27192   1.00
H2       0.42007    1.12813    0.25683   1.00
H2       0.48759    1.18555    0.27366   1.00
H2       0.40910    1.18752    0.27225   1.00
C5       0.63419    1.07356    0.30921   1.00
C5       0.41231    1.07102    0.38684   1.00
H2       0.61025    1.01803    0.31237   1.00
H2       0.67563    1.10196    0.32051   1.00
H2       0.37078    1.03711    0.37619   1.00
H2       0.42866    1.12491    0.38263   1.00
H2       0.39852    1.15224    0.42175   1.00
H2       0.66977    0.99368    0.28309   1.00
H2       0.74304    1.06111    0.29626   1.00
C2       0.42001    0.85903    0.29040   1.00
C3       0.46660    0.86325    0.30535   1.00
O2       0.50008    0.82675    0.30325   1.00
C3       0.39787    0.90743    0.29083   1.00
H1       0.36089    0.90453    0.27992   1.00
C3a      0.49113    0.91607    0.31988   1.00
H1       0.52971    0.92092    0.33050   1.00
C3b      0.42400    0.96116    0.30489   1.00
C4       0.47112    0.96592    0.31955   1.00
O_3      0.58542    1.09497    0.30957   1.00
C5       0.46977    0.76845    0.31578   1.00
H2       0.47165    0.78268    0.33208   1.00
C5       0.51030    0.73158    0.31286   1.00
H2       0.41554    0.73376    0.31143   1.00
H2       0.55770    0.75805    0.32211   1.00
H2       0.52670    0.73807    0.29669   1.00
C5       0.46921    0.65531    0.31847   1.00
H2       0.44872    0.64961    0.33411   1.00
H2       0.50204    0.63166    0.31779   1.00
H2       0.42622    0.62631    0.30763   1.00
C5       0.66513    1.08760    0.28804   1.00
H2       0.69885    1.14369    0.28624   1.00
H2       0.62308    1.07136    0.27679   1.00
C5       0.70483    1.04994    0.28408   1.00
H2       0.73248    1.06686    0.26941   1.00
C5       0.66914    0.61296    0.40894   1.00
H2       0.63399    0.56803    0.41822   1.00
H2       0.65175    0.65062    0.41088   1.00
C5       0.74289    0.64255    0.41690   1.00
H2       0.75183    0.67569    0.43036   1.00
H2       0.78003    0.67305    0.40481   1.00
O_3      0.60674    0.60016    0.30521   1.00
C4       0.52281    0.50125    0.33379   1.00
C3c      0.54617    0.53141    0.35290   1.00
H1       0.54210    0.57536    0.35714   1.00
C3d      0.52769    0.44343    0.32867   1.00
C3       0.57589    0.50625    0.36666   1.00
O2       0.58988    0.53308    0.38595   1.00
C3       0.55844    0.41904    0.34218   1.00
H1       0.56326    0.37608    0.33730   1.00
C2       0.58301    0.44940    0.36148   1.00
C5       0.62379    0.57194    0.28867   1.00
H2       0.61031    0.58560    0.27381   1.00
H2       0.59731    0.51520    0.28977   1.00
C5       0.70038    0.60026    0.28923   1.00
H2       0.71411    0.58827    0.30430   1.00
H2       0.72630    0.65686    0.28794   1.00
C5       0.72306    0.57017    0.27211   1.00
H2       0.70908    0.58155    0.25703   1.00
H2       0.69904    0.51391    0.27379   1.00
H2       0.77935    0.59260    0.27250   1.00
C5       0.44010    0.36606    0.30904   1.00
C5       0.65798    0.58740    0.38700   1.00
H2       0.40829    0.38977    0.31220   1.00
H2       0.42706    0.32451    0.32030   1.00
H2       0.66557    0.62901    0.37639   1.00
H2       0.69573    0.57130    0.38281   1.00
H2       0.75270    0.60112    0.42199   1.00
H2       0.32487    0.33040    0.28282   1.00
H2       0.31916    0.25709    0.29592   1.00
C2       0.43905    0.58002    0.29040   1.00
C3       0.39660    0.53315    0.30529   1.00
O2       0.32665    0.49947    0.30311   1.00
C3       0.50964    0.60241    0.29090   1.00
H1       0.54377    0.63959    0.28004   1.00
C3a      0.42488    0.50861    0.31982   1.00
H1       0.39112    0.46984    0.33038   1.00
C3b      0.53724    0.57626    0.30496   1.00
C4       0.49481    0.52888    0.31955   1.00
O_3      0.51021    0.41502    0.30949   1.00
C5       0.29831    0.52944    0.31564   1.00
H2       0.31049    0.52740    0.33195   1.00
C5       0.22095    0.48869    0.31263   1.00
H2       0.31771    0.58369    0.31135   1.00
H2       0.20007    0.44119    0.32183   1.00
H2       0.21130    0.47250    0.29645   1.00
C5       0.18545    0.52947    0.31826   1.00
H2       0.19999    0.54978    0.33392   1.00
H2       0.12900    0.49648    0.31751   1.00
H2       0.19943    0.57257    0.30746   1.00
C5       0.42355    0.33539    0.28784   1.00
H2       0.44614    0.30186    0.28603   1.00
H2       0.44936    0.37759    0.27664   1.00
C5       0.34624    0.29549    0.28380   1.00
H2       0.33579    0.26804    0.26909   1.00
C5       0.30902    0.37816    0.24645   1.00
H2       0.35853    0.42380    0.24254   1.00
H2       0.31670    0.33374    0.24448   1.00
C5       0.29074    0.38335    0.26875   1.00
H2       0.31813    0.36696    0.27933   1.00
H2       0.23483    0.35058    0.27115   1.00
O_3      0.05617    0.24790    0.17238   1.00
C4       0.19074    0.35543    0.16693   1.00
C3c      0.22718    0.35417    0.18400   1.00
H1       0.23381    0.31068    0.18658   1.00
C3d      0.18352    0.41300    0.16370   1.00
C3       0.25470    0.40812    0.19811   1.00
O2       0.29668    0.40712    0.21304   1.00
C3       0.20974    0.46622    0.17792   1.00
H1       0.20086    0.50821    0.17517   1.00
C2       0.24609    0.46543    0.19538   1.00
C5       0.00704    0.26516    0.16615   1.00
H2       -0.02945   0.22826    0.15488   1.00
H2       0.03181    0.31712    0.15926   1.00
C5       -0.03272   0.26415    0.18483   1.00
H2       0.00397    0.29959    0.19633   1.00
H2       -0.05774   0.21189    0.19147   1.00
C5       -0.08586   0.28480    0.17952   1.00
H2       -0.12237   0.24991    0.16794   1.00
H2       -0.06074   0.33786    0.17355   1.00
H2       -0.11541   0.28231    0.19328   1.00
C5       0.18404    0.44010    0.13035   1.00
C5       0.25821    0.37577    0.23069   1.00
H2       0.20421    0.40660    0.12541   1.00
H2       0.22782    0.49267    0.13275   1.00
H2       0.21878    0.32184    0.22740   1.00
H2       0.23111    0.40215    0.23660   1.00
H2       0.30658    0.43714    0.27290   1.00
H2       0.17307    0.40469    0.08788   1.00
H2       0.22346    0.49605    0.09225   1.00
C2       0.09931    0.18965    0.12474   1.00
C3       0.16804    0.24116    0.12231   1.00
O2       0.20105    0.24849    0.10410   1.00
C3       0.06318    0.19265    0.14185   1.00
H1       0.01105    0.15307    0.14443   1.00
C3a      0.19826    0.29480    0.13654   1.00
H1       0.24966    0.33588    0.13384   1.00
C3b      0.09269    0.24720    0.15562   1.00
C4       0.16068    0.29892    0.15301   1.00
O_3      0.14377    0.41450    0.14798   1.00
C5       0.24432    0.22051    0.10548   1.00
H2       0.28357    0.24619    0.11757   1.00
C5       0.27971    0.23165    0.08491   1.00
H2       0.21458    0.16485    0.10884   1.00
H2       0.32256    0.28526    0.08418   1.00
H2       0.24247    0.22651    0.07302   1.00
C5       0.30572    0.18143    0.08095   1.00
H2       0.33852    0.18339    0.09377   1.00
H2       0.33605    0.19472    0.06669   1.00
H2       0.26250    0.12807    0.07906   1.00
C5       0.13863    0.44200    0.11364   1.00
H2       0.12815    0.48411    0.11698   1.00
H2       0.08877    0.39356    0.11423   1.00
C5       0.17103    0.45106    0.09251   1.00
H2       0.14005    0.45936    0.08100   1.00
C5       0.39025    0.57903    0.16929   1.00
H2       0.39888    0.56481    0.18467   1.00
H2       0.40682    0.55254    0.15848   1.00
C5       0.31351    0.55431    0.16646   1.00
H2       0.28481    0.49923    0.16239   1.00
H2       0.30652    0.58422    0.15425   1.00
O_3      0.63571    0.89283    0.13046   1.00
C4       0.64548    0.83520    0.16725   1.00
C3c      0.59313    0.76674    0.16676   1.00
H1       0.59436    0.73266    0.15550   1.00
C3d      0.64343    0.87852    0.18223   1.00
C3       0.53815    0.74140    0.18049   1.00
O2       0.49341    0.67221    0.18069   1.00
C3       0.58808    0.85378    0.19567   1.00
H1       0.58748    0.88950    0.20643   1.00
C2       0.53433    0.78487    0.19524   1.00
C5       0.64754    0.95986    0.13285   1.00
H2       0.68866    0.99682    0.12263   1.00
H2       0.66209    0.97783    0.14880   1.00
C5       0.58178    0.95900    0.12762   1.00
H2       0.54026    0.92066    0.13745   1.00
H2       0.56809    0.94160    0.11162   1.00
C5       0.58946    1.02971    0.13053   1.00
H2       0.63116    1.06834    0.12086   1.00
H2       0.60079    1.04611    0.14665   1.00
H2       0.54138    1.02843    0.12620   1.00
C5       0.74811    0.95866    0.19391   1.00
C5       0.43751    0.65630    0.16779   1.00
H2       0.77355    0.93222    0.18710   1.00
H2       0.73381    0.94081    0.20987   1.00
H2       0.45549    0.67117    0.15186   1.00
H2       0.40964    0.68351    0.17220   1.00
H2       0.29026    0.55955    0.18082   1.00
H2       0.89474    1.03484    0.18991   1.00
H2       0.86657    1.02728    0.21608   1.00
C2       0.80990    0.91714    0.12450   1.00
C3       0.81445    0.88523    0.14235   1.00
O2       0.87662    0.89471    0.14876   1.00
C3       0.74889    0.91815    0.12074   1.00
H1       0.74312    0.94062    0.10696   1.00
C3a      0.75941    0.85697    0.15614   1.00
H1       0.76520    0.83620    0.17028   1.00
C3b      0.69512    0.89196    0.13479   1.00
C4       0.70012    0.86119    0.15268   1.00
O_3      0.69089    0.94748    0.18240   1.00
C5       0.88244    0.83716    0.14389   1.00
H2       0.84123    0.79012    0.15126   1.00
C5       0.95186    0.85113    0.15176   1.00
H2       0.87978    0.82887    0.12717   1.00
H2       0.94760    0.84093    0.16837   1.00
H2       0.98833    0.90666    0.14982   1.00
C5       0.97815    0.80855    0.14081   1.00
H2       0.93881    0.75363    0.14152   1.00
H2       1.02573    0.81579    0.14806   1.00
H2       0.99096    0.82444    0.12461   1.00
C5       0.79819    1.03506    0.19398   1.00
H2       0.77726    1.06020    0.20383   1.00
H2       0.80108    1.05474    0.17831   1.00
C5       0.86958    1.05182    0.20120   1.00
H2       0.90263    1.10783    0.20308   1.00
C5       0.39680    0.76847    0.16247   1.00
H2       0.42100    0.79732    0.17657   1.00
H2       0.42194    0.80494    0.14980   1.00
C5       0.40943    0.70755    0.16061   1.00
H2       0.46111    0.72438    0.15434   1.00
H2       0.37049    0.66785    0.15048   1.00
O_3      0.08379    0.73186    0.13452   1.00
C4       0.16495    0.81039    0.16724   1.00
C3c      0.22889    0.81562    0.16446   1.00
H1       0.25941    0.84233    0.15138   1.00
C3d      0.12641    0.77623    0.18453   1.00
C3       0.25400    0.78589    0.17823   1.00
O2       0.32026    0.80020    0.17586   1.00
C3       0.15070    0.74545    0.19807   1.00
H1       0.11828    0.71771    0.21072   1.00
C2       0.21491    0.74961    0.19537   1.00
C5       0.01597    0.68561    0.14033   1.00
H2       -0.02185   0.69175    0.13109   1.00
H2       0.00734    0.69223    0.15663   1.00
C5       0.00386    0.61395    0.13712   1.00
H2       0.04287    0.60843    0.14590   1.00
H2       0.01199    0.60771    0.12077   1.00
C5       -0.06825   0.56022    0.14377   1.00
H2       -0.10746   0.56573    0.13516   1.00
H2       -0.07563   0.56490    0.16026   1.00
H2       -0.07666   0.50818    0.14090   1.00
C5       0.06405    0.82136    0.19741   1.00
C5       0.32173    0.74905    0.16394   1.00
H2       0.09256    0.86903    0.18842   1.00
H2       0.08878    0.82928    0.21258   1.00
H2       0.30076    0.74773    0.14853   1.00
H2       0.29080    0.69701    0.17069   1.00
H2       0.40751    0.68456    0.17578   1.00
H2       0.00452    0.90766    0.19333   1.00
H2       0.02136    0.89620    0.21957   1.00
C2       0.08246    0.89302    0.12472   1.00
C3       0.12600    0.93445    0.14037   1.00
O2       0.12900    0.99509    0.14534   1.00
C3       0.06988    0.82541    0.12293   1.00
H1       0.03821    0.79296    0.11079   1.00
C3a      0.15422    0.90730    0.15405   1.00
H1       0.18428    0.93841    0.16664   1.00
C3b      0.09626    0.79788    0.13693   1.00
C4       0.13867    0.83880    0.15268   1.00
O_3      0.06103    0.76520    0.18717   1.00
C5       0.18833    1.05056    0.13710   1.00
H2       0.23534    1.05205    0.14294   1.00
C5       0.18847    1.11558    0.14353   1.00
H2       0.18819    1.04760    0.12022   1.00
H2       0.20702    1.12766    0.15946   1.00
H2       0.13449    1.10391    0.14367   1.00
C5       0.23209    1.17673    0.12952   1.00
H2       0.28436    1.18425    0.12830   1.00
H2       0.23561    1.22422    0.13563   1.00
H2       0.20907    1.16886    0.11405   1.00
C5       -0.00885   0.80643    0.20029   1.00
H2       -0.03373   0.76609    0.21208   1.00
H2       -0.03717   0.78483    0.18587   1.00
C5       -0.01168   0.87075    0.20619   1.00
H2       -0.06476   0.85673    0.21022   1.00
C5       1.02913    0.58630    0.58089   1.00
H2       1.06822    0.64095    0.58264   1.00
H2       0.97913    0.58435    0.58085   1.00
C5       1.04039    0.55925    0.56055   1.00
H2       1.01786    0.57331    0.54772   1.00
H2       1.01646    0.50274    0.56114   1.00
O_3      0.93325    0.38213    0.66722   1.00
C4       1.02200    0.52418    0.66638   1.00
C3c      1.01459    0.54568    0.64704   1.00
H1       0.96621    0.54048    0.64266   1.00
C3d      1.08575    0.53229    0.67190   1.00
C3       1.06874    0.57316    0.63300   1.00
O2       1.06030    0.60067    0.61538   1.00
C3       1.13938    0.55843    0.65782   1.00
H1       1.18659    0.56145    0.66248   1.00
C2       1.13253    0.57973    0.63812   1.00
C5       0.96155    0.34715    0.67737   1.00
H2       0.92801    0.31408    0.68982   1.00
H2       1.01234    0.38357    0.68399   1.00
C5       0.97019    0.30232    0.66189   1.00
H2       1.00213    0.33511    0.64917   1.00
H2       0.91911    0.26575    0.65552   1.00
C5       1.00308    0.26411    0.67154   1.00
H2       0.97169    0.23162    0.68435   1.00
H2       1.05506    0.30056    0.67728   1.00
H2       1.00760    0.23048    0.66011   1.00
C5       1.11227    0.55727    0.70534   1.00
C5       1.03563    0.55092    0.59985   1.00
H2       1.07132    0.57009    0.70767   1.00
H2       1.16061    0.60497    0.70154   1.00
H2       0.98485    0.50718    0.60417   1.00
H2       1.07034    0.53007    0.59685   1.00
H2       1.09593    0.58223    0.55708   1.00
H2       1.07248    0.56389    0.74653   1.00
H2       1.16176    0.62460    0.74158   1.00
C2       0.85711    0.43319    0.70888   1.00
C3       0.89876    0.50480    0.70800   1.00
O2       0.89842    0.54494    0.72369   1.00
C3       0.86923    0.39322    0.69481   1.00
H1       0.83713    0.33839    0.69474   1.00
C3a      0.95203    0.53447    0.69364   1.00
H1       0.98588    0.58907    0.69393   1.00
C3b      0.92359    0.42274    0.68098   1.00
C4       0.96561    0.49386    0.68034   1.00
O_3      1.09421    0.50724    0.69015   1.00
C5       0.85926    0.57528    0.71836   1.00
H2       0.88013    0.60783    0.70455   1.00
C5       0.86237    0.61961    0.73631   1.00
H2       0.80518    0.53575    0.71542   1.00
H2       0.91176    0.66848    0.73568   1.00
H2       0.86342    0.59314    0.75044   1.00
C5       0.80214    0.63327    0.73673   1.00
H2       0.79862    0.65471    0.72191   1.00
H2       0.80916    0.67019    0.74894   1.00
H2       0.75289    0.58559    0.73995   1.00
C5       1.12225    0.52801    0.72499   1.00
H2       1.17042    0.52628    0.72381   1.00
H2       1.07990    0.47430    0.72642   1.00
C5       1.12366    0.56963    0.74363   1.00
H2       1.13806    0.55124    0.75736   1.00
C5       0.58175    -0.03691   0.58392   1.00
H2       0.59077    -0.07997   0.58699   1.00
H2       0.63248    0.01007    0.58497   1.00
C5       0.55185    -0.04438   0.56235   1.00
H2       0.59300    -0.02511   0.55072   1.00
H2       0.52437    -0.01525   0.56117   1.00
O_3      0.46324    0.07791    0.66347   1.00
C4       0.50206    -0.02206   0.66640   1.00
C3c      0.53647    -0.01787   0.64826   1.00
H1       0.58399    0.02794    0.64483   1.00
C3d      0.44071    -0.08257   0.67071   1.00
C3       0.50993    -0.07191   0.63418   1.00
O2       0.55040    -0.06746   0.61801   1.00
C3       0.41349    -0.13596   0.65655   1.00
H1       0.36510    -0.18040   0.66019   1.00
C2       0.44725    -0.13228   0.63803   1.00
C5       0.39756    0.05573    0.67144   1.00
H2       0.39781    0.09115    0.68322   1.00
H2       0.37570    0.00395    0.67832   1.00
C5       0.35225    0.05288    0.65403   1.00
H2       0.35352    0.01899    0.64199   1.00
H2       0.37420    0.10495    0.64740   1.00
C5       0.27893    0.02680    0.66126   1.00
H2       0.27734    0.06014    0.67338   1.00
H2       0.25615    -0.02611   0.66724   1.00
H2       0.24693    0.02649    0.64842   1.00
C5       0.42446    -0.11005   0.70432   1.00
C5       0.53555    -0.03858   0.60113   1.00
H2       0.47856    -0.07329   0.70812   1.00
H2       0.41924    -0.16098   0.70137   1.00
H2       0.54682    0.01416    0.60481   1.00
H2       0.48077    -0.06857   0.59648   1.00
H2       0.51603    -0.09907   0.55854   1.00
H2       0.45817    -0.07328   0.74641   1.00
H2       0.42240    -0.16405   0.74190   1.00
C2       0.57618    0.14334    0.70872   1.00
C3       0.59915    0.09583    0.70982   1.00
O2       0.63132    0.09149    0.72705   1.00
C3       0.53124    0.13668    0.69282   1.00
H1       0.51412    0.17324    0.69125   1.00
C3a      0.57568    0.04237    0.69553   1.00
H1       0.59067    0.00419    0.69726   1.00
C3b      0.50629    0.08220    0.67903   1.00
C4       0.52835    0.03441    0.68033   1.00
O_3      0.40228    -0.08732   0.68760   1.00
C5       0.70243    0.12442    0.72393   1.00
H2       0.71548    0.10090    0.71107   1.00
C5       0.73409    0.11637    0.74351   1.00
H2       0.72359    0.17967    0.72065   1.00
H2       0.72776    0.06434    0.74373   1.00
H2       0.70354    0.11868    0.75641   1.00
C5       0.80988    0.17104    0.74590   1.00
H2       0.83858    0.17163    0.73215   1.00
H2       0.83253    0.16017    0.75937   1.00
H2       0.81628    0.22281    0.74830   1.00
C5       0.38005    -0.11571   0.72238   1.00
H2       0.32824    -0.16054   0.72000   1.00
H2       0.37422    -0.06968   0.72259   1.00
C5       0.41073    -0.12184   0.74257   1.00
H2       0.37380    -0.13298   0.75510   1.00
C5       0.38249    0.41907    0.58379   1.00
H2       0.33030    0.40981    0.58681   1.00
H2       0.37894    0.36842    0.58480   1.00
C5       0.40510    0.44927    0.56226   1.00
H2       0.38350    0.40828    0.55058   1.00
H2       0.46173    0.47696    0.56114   1.00
O_3      0.61482    0.53731    0.66360   1.00
C4       0.47587    0.49794    0.66640   1.00
C3c      0.44595    0.46370    0.64821   1.00
H1       0.44449    0.41632    0.64475   1.00
C3d      0.47639    0.55910    0.67076   1.00
C3       0.41846    0.49025    0.63413   1.00
O2       0.38273    0.44992    0.61791   1.00
C3       0.45023    0.58633    0.65660   1.00
H1       0.45393    0.63459    0.66028   1.00
C2       0.42046    0.55275    0.63803   1.00
C5       0.65804    0.60293    0.67165   1.00
H2       0.69314    0.60268    0.68346   1.00
H2       0.62787    0.62452    0.67853   1.00
C5       0.70061    0.64855    0.65430   1.00
H2       0.66553    0.64729    0.64224   1.00
H2       0.73097    0.62686    0.64767   1.00
C5       0.74754    0.72182    0.66162   1.00
H2       0.78239    0.72340    0.67377   1.00
H2       0.71718    0.74434    0.66760   1.00
H2       0.77932    0.75405    0.64884   1.00
C5       0.46465    0.57484    0.70437   1.00
C5       0.42670    0.46514    0.60107   1.00
H2       0.44746    0.52073    0.70811   1.00
H2       0.41886    0.57989    0.70140   1.00
H2       0.46826    0.45402    0.60477   1.00
H2       0.45136    0.51996    0.59648   1.00
H2       0.38608    0.48499    0.55847   1.00
H2       0.46734    0.54068    0.74644   1.00
H2       0.41213    0.57618    0.74192   1.00
C2       0.56714    0.42383    0.70872   1.00
C3       0.49659    0.40059    0.70975   1.00
O2       0.45993    0.36811    0.72694   1.00
C3       0.60550    0.46903    0.69289   1.00
H1       0.65924    0.48637    0.69137   1.00
C3a      0.46661    0.42406    0.69546   1.00
H1       0.41337    0.40886    0.69715   1.00
C3b      0.57597    0.49398    0.67910   1.00
C4       0.50605    0.47165    0.68033   1.00
O_3      0.50977    0.59737    0.68770   1.00
C5       0.42201    0.29703    0.72374   1.00
H2       0.38558    0.28401    0.71084   1.00
C5       0.38211    0.26502    0.74326   1.00
H2       0.45631    0.27610    0.72047   1.00
H2       0.33629    0.27114    0.74345   1.00
H2       0.41475    0.29547    0.75621   1.00
C5       0.36125    0.18927    0.74557   1.00
H2       0.33337    0.16068    0.73179   1.00
H2       0.32758    0.16635    0.75901   1.00
H2       0.40672    0.18305    0.74800   1.00
C5       0.50308    0.61909    0.72249   1.00
H2       0.50986    0.67084    0.72016   1.00
H2       0.55501    0.62512    0.72274   1.00
C5       0.46607    0.58805    0.74263   1.00
H2       0.49160    0.62486    0.75521   1.00
C5       0.29541    -0.31104   0.17799   1.00
H2       0.25581    -0.31426   0.16739   1.00
H2       0.27856    -0.30585   0.19338   1.00
C5       0.29946    -0.37714   0.17654   1.00
H2       0.25854    -0.41862   0.18575   1.00
H2       0.34995    -0.36754   0.18207   1.00
O_3      0.59135    0.00356    0.18898   1.00
C4       0.47610    -0.02134   0.16615   1.00
C3c      0.42410    -0.08662   0.17185   1.00
H1       0.40519    -0.09568   0.18725   1.00
C3d      0.49933    -0.01037   0.14593   1.00
C3       0.39643    -0.14123   0.15797   1.00
O2       0.34018    -0.20128   0.16394   1.00
C3       0.47280    -0.06495   0.13218   1.00
H1       0.49390    -0.05465   0.11703   1.00
C2       0.42072    -0.13146   0.13775   1.00
C5       0.65243    0.03746    0.17771   1.00
H2       0.69146    0.08520    0.18527   1.00
H2       0.64294    0.05085    0.16222   1.00
C5       0.68072    -0.01062   0.17582   1.00
H2       0.64100    -0.05907   0.16878   1.00
H2       0.69060    -0.02313   0.19135   1.00
C5       0.74618    0.02146    0.16309   1.00
H2       0.78592    0.07011    0.16996   1.00
H2       0.73588    0.03179    0.14737   1.00
H2       0.76692    -0.01381   0.16225   1.00
C5       0.52989    0.09545    0.13380   1.00
C5       0.36095    -0.24565   0.17219   1.00
H2       0.50440    0.10621    0.14652   1.00
H2       0.49327    0.07353    0.12090   1.00
H2       0.39327    -0.22212   0.18589   1.00
H2       0.39150    -0.25727   0.16123   1.00
H2       0.29168    -0.39646   0.16059   1.00
H2       0.56530    0.23544    0.14047   1.00
H2       0.52898    0.20428    0.11550   1.00
C2       0.56761    0.14480    0.20822   1.00
C3       0.50771    0.13105    0.19773   1.00
O2       0.48772    0.17943    0.19688   1.00
C3       0.59411    0.10058    0.20521   1.00
H1       0.63887    0.10867    0.21341   1.00
C3a      0.47699    0.07527    0.18424   1.00
H1       0.43343    0.06774    0.17545   1.00
C3b      0.56470    0.04646    0.19130   1.00
C4       0.50576    0.03350    0.18065   1.00
O_3      0.55391    0.05153    0.13995   1.00
C5       0.43408    0.16303    0.21068   1.00
H2       0.38893    0.11215    0.20721   1.00
C5       0.41418    0.21816    0.20858   1.00
H2       0.45068    0.16246    0.22656   1.00
H2       0.38114    0.20650    0.19495   1.00
H2       0.46169    0.26726    0.20542   1.00
C5       0.37791    0.22449    0.22755   1.00
H2       0.33372    0.17380    0.23141   1.00
H2       0.35919    0.26086    0.22482   1.00
H2       0.41336    0.24461    0.24081   1.00
C5       0.59134    0.16219    0.12702   1.00
H2       0.60962    0.15347    0.11224   1.00
H2       0.63315    0.17620    0.13821   1.00
C5       0.57457    0.22003    0.12525   1.00
H2       0.61818    0.26571    0.11828   1.00
C5       1.07283    0.37280    0.09708   1.00
H2       1.07763    0.41220    0.08613   1.00
H2       1.01941    0.33023    0.09578   1.00
C5       1.12329    0.34829    0.09127   1.00
H2       1.10201    0.30970    0.07891   1.00
H2       1.13401    0.32535    0.10471   1.00
O_3      1.01774    0.41574    0.19853   1.00
C4       1.02147    0.49868    0.16618   1.00
C3c      1.01826    0.46303    0.14840   1.00
H1       0.97307    0.41473    0.14520   1.00
C3d      1.08043    0.56200    0.16992   1.00
C3       1.07325    0.48837    0.13467   1.00
O2       1.06323    0.45496    0.11646   1.00
C3       1.13577    0.58674    0.15648   1.00
H1       1.18084    0.63435    0.16035   1.00
C2       1.13367    0.55099    0.13854   1.00
C5       1.06188    0.45362    0.21455   1.00
H2       1.03475    0.44287    0.22938   1.00
H2       1.08675    0.50952    0.21157   1.00
C5       1.11645    0.43349    0.21610   1.00
H2       1.14228    0.44242    0.20111   1.00
H2       1.09109    0.37773    0.21926   1.00
C5       1.16825    0.47426    0.23276   1.00
H2       1.14274    0.46595    0.24775   1.00
H2       1.19529    0.52977    0.22926   1.00
H2       1.20686    0.45778    0.23397   1.00
C5       1.05972    0.63923    0.18587   1.00
C5       1.08462    0.40619    0.11801   1.00
H2       1.00406    0.60904    0.18274   1.00
H2       1.08476    0.67721    0.17343   1.00
H2       1.05377    0.36722    0.12971   1.00
H2       1.13946    0.42952    0.12247   1.00
H2       1.17230    0.39131    0.08539   1.00
H2       0.97090    0.67139    0.20888   1.00
H2       1.03329    0.74306    0.19396   1.00
C2       0.85915    0.42067    0.20963   1.00
C3       0.85810    0.45915    0.19293   1.00
O2       0.81551    0.48636    0.19296   1.00
C3       0.91289    0.40603    0.21099   1.00
H1       0.91421    0.37523    0.22331   1.00
C3a      0.91098    0.48336    0.17842   1.00
H1       0.91152    0.51599    0.16637   1.00
C3b      0.96655    0.43202    0.19691   1.00
C4       0.96600    0.47114    0.18048   1.00
O_3      1.08822    0.59658    0.18793   1.00
C5       0.75778    0.44663    0.18075   1.00
H2       0.77272    0.44444    0.16474   1.00
C5       0.71395    0.48063    0.18130   1.00
H2       0.72772    0.39359    0.18670   1.00
H2       0.73623    0.52460    0.17062   1.00
H2       0.71867    0.50228    0.19679   1.00
C5       0.63852    0.43110    0.17608   1.00
H2       0.63512    0.40594    0.16131   1.00
H2       0.60958    0.45882    0.17497   1.00
H2       0.61303    0.39145    0.18812   1.00
C5       1.07059    0.67705    0.20584   1.00
H2       1.12566    0.71589    0.20722   1.00
H2       1.05844    0.64000    0.21846   1.00
C5       1.02601    0.71053    0.20744   1.00
H2       1.04038    0.74338    0.22115   1.00
C5       0.61268    0.66860    0.09097   1.00
H2       0.56767    0.63345    0.08172   1.00
H2       0.65025    0.65111    0.08902   1.00
C5       0.64234    0.74232    0.08297   1.00
H2       0.67539    0.75112    0.06949   1.00
H2       0.67296    0.77951    0.09503   1.00
O_3      0.60041    0.60679    0.19473   1.00
C4       0.50125    0.52281    0.16621   1.00
C3c      0.53131    0.54602    0.14708   1.00
H1       0.57517    0.54183    0.14282   1.00
C3d      0.44354    0.52785    0.17135   1.00
C3       0.50614    0.57574    0.13332   1.00
O2       0.53286    0.58956    0.11402   1.00
C3       0.41915    0.55860    0.15784   1.00
H1       0.37627    0.56355    0.16273   1.00
C2       0.44941    0.58302    0.13852   1.00
C5       0.57236    0.62402    0.21127   1.00
H2       0.58607    0.61059    0.22613   1.00
H2       0.51561    0.59763    0.21020   1.00
C5       0.60080    0.70063    0.21067   1.00
H2       0.58876    0.71431    0.19560   1.00
H2       0.65741    0.72646    0.21194   1.00
C5       0.57091    0.72350    0.22780   1.00
H2       0.58233    0.70957    0.24288   1.00
H2       0.51464    0.69956    0.22614   1.00
H2       0.59342    0.77980    0.22738   1.00
C5       0.36618    0.44044    0.19104   1.00
C5       0.58726    0.65762    0.11292   1.00
H2       0.38978    0.40854    0.18788   1.00
H2       0.32458    0.42741    0.17980   1.00
H2       0.62891    0.66519    0.12352   1.00
H2       0.57128    0.69547    0.11710   1.00
H2       0.60095    0.75220    0.07789   1.00
H2       0.33048    0.32532    0.21732   1.00
H2       0.25715    0.31969    0.20424   1.00
C2       0.58003    0.43906    0.20960   1.00
C3       0.53303    0.39658    0.19475   1.00
O2       0.49925    0.32663    0.19696   1.00
C3       0.60254    0.50967    0.20907   1.00
H1       0.63982    0.54382    0.21990   1.00
C3a      0.50848    0.42484    0.18021   1.00
H1       0.46961    0.39106    0.16968   1.00
C3b      0.57640    0.53727    0.19501   1.00
C4       0.52888    0.49481    0.18045   1.00
O_3      0.41524    0.51053    0.19055   1.00
C5       0.52905    0.29812    0.18442   1.00
H2       0.52694    0.31022    0.16811   1.00
C5       0.48820    0.22078    0.18747   1.00
H2       0.58331    0.31746    0.18869   1.00
H2       0.44065    0.19994    0.17830   1.00
H2       0.47211    0.21126    0.20367   1.00
C5       0.52883    0.18513    0.18185   1.00
H2       0.54905    0.19955    0.16617   1.00
H2       0.49576    0.12869    0.18263   1.00
H2       0.57198    0.19910    0.19263   1.00
C5       0.33564    0.42407    0.21226   1.00
H2       0.30221    0.44676    0.21407   1.00
H2       0.37793    0.44989    0.22343   1.00
C5       0.29564    0.34679    0.21634   1.00
H2       0.26830    0.33647    0.23106   1.00
C5       0.35389    0.64226    0.65492   1.00
H2       0.34852    0.60007    0.66477   1.00
H2       0.35795    0.62724    0.63917   1.00
C5       0.28998    0.64987    0.65716   1.00
H2       0.24740    0.61175    0.64760   1.00
H2       0.30216    0.70203    0.65253   1.00
O_3      0.67598    0.92999    0.64638   1.00
C4       0.64529    0.80939    0.66718   1.00
C3c      0.57898    0.76066    0.66117   1.00
H1       0.56910    0.74433    0.64552   1.00
C3d      0.65727    0.82926    0.68770   1.00
C3       0.52443    0.73304    0.67507   1.00
O2       0.46295    0.67970    0.66866   1.00
C3       0.60282    0.80281    0.70150   1.00
H1       0.61403    0.82137    0.71692   1.00
C2       0.53532    0.75405    0.69563   1.00
C5       0.71236    0.98887    0.65847   1.00
H2       0.76089    1.02748    0.65117   1.00
H2       0.72483    0.97582    0.67359   1.00
C5       0.66732    1.02025    0.66142   1.00
H2       0.61805    0.98106    0.66819   1.00
H2       0.65572    1.03366    0.64624   1.00
C5       0.70218    1.08349    0.67507   1.00
H2       0.75164    1.12265    0.66847   1.00
H2       0.71163    1.06973    0.69045   1.00
H2       0.66913    1.10658    0.67669   1.00
C5       0.76171    0.85266    0.69928   1.00
C5       0.42108    0.70486    0.66130   1.00
H2       0.77069    0.82802    0.68596   1.00
H2       0.73837    0.81419    0.71167   1.00
H2       0.44573    0.73895    0.64800   1.00
H2       0.41155    0.73502    0.67296   1.00
H2       0.27081    0.64032    0.67314   1.00
H2       0.89955    0.88225    0.69181   1.00
H2       0.86728    0.84261    0.71636   1.00
C2       0.81166    0.90093    0.62519   1.00
C3       0.79493    0.83852    0.63464   1.00
O2       0.84073    0.81518    0.63458   1.00
C3       0.77027    0.93008    0.62919   1.00
H1       0.78065    0.97690    0.62179   1.00
C3a      0.73906    0.80790    0.64810   1.00
H1       0.72930    0.76219    0.65610   1.00
C3b      0.71609    0.90064    0.64308   1.00
C4       0.70017    0.83915    0.65270   1.00
O_3      0.72045    0.88077    0.69408   1.00
C5       0.82176    0.76337    0.61992   1.00
H2       0.76983    0.71934    0.62304   1.00
C5       0.87412    0.73952    0.62104   1.00
H2       0.82213    0.78306    0.60440   1.00
H2       0.86095    0.70403    0.63412   1.00
H2       0.92448    0.78499    0.62459   1.00
C5       0.87819    0.70512    0.60131   1.00
H2       0.82648    0.66328    0.59714   1.00
H2       0.91242    0.68343    0.60328   1.00
H2       0.89971    0.74256    0.58855   1.00
C5       0.82997    0.91082    0.70654   1.00
H2       0.82257    0.92761    0.72174   1.00
H2       0.84594    0.95478    0.69603   1.00
C5       0.88515    0.89010    0.70735   1.00
H2       0.93196    0.93110    0.71467   1.00
C5       0.42884    0.59985    0.67287   1.00
H2       0.40815    0.63511    0.67240   1.00
H2       0.44435    0.59709    0.65707   1.00
C5       0.49135    0.62908    0.68718   1.00
H2       0.53797    0.66841    0.67927   1.00
H2       0.50011    0.58745    0.69252   1.00
O_3      0.19710    0.25122    0.67128   1.00
C4       0.16428    0.35518    0.66702   1.00
C3c      0.22643    0.41546    0.66366   1.00
H1       0.25537    0.42069    0.65007   1.00
C3d      0.12688    0.34978    0.68468   1.00
C3       0.25268    0.46930    0.67780   1.00
O2       0.30939    0.52973    0.67234   1.00
C3       0.15350    0.40276    0.69898   1.00
H1       0.12418    0.39533    0.71264   1.00
C2       0.21664    0.46377    0.69593   1.00
C5       0.15843    0.20373    0.68654   1.00
H2       0.13124    0.15033    0.68074   1.00
H2       0.11982    0.21514    0.69311   1.00
C5       0.20739    0.20902    0.70313   1.00
H2       0.23596    0.26282    0.70853   1.00
H2       0.24531    0.19691    0.69644   1.00
C5       0.16909    0.16059    0.72075   1.00
H2       0.14007    0.10681    0.71544   1.00
H2       0.13291    0.17413    0.72789   1.00
H2       0.20585    0.16407    0.73252   1.00
C5       0.01152    0.28939    0.68037   1.00
C5       0.36897    0.53071    0.67926   1.00
H2       0.01590    0.29167    0.66355   1.00
H2       0.00595    0.33312    0.68571   1.00
H2       0.37341    0.48846    0.67209   1.00
H2       0.36910    0.52421    0.69608   1.00
H2       0.48401    0.65497    0.70059   1.00
H2       -0.10701   0.19600    0.65715   1.00
H2       -0.12219   0.25276    0.67301   1.00
C2       0.08555    0.18671    0.62572   1.00
C3       0.07139    0.24010    0.62266   1.00
O2       0.01948    0.23126    0.60982   1.00
C3       0.12871    0.19219    0.64201   1.00
H1       0.14197    0.15304    0.64444   1.00
C3a      0.09880    0.29619    0.63607   1.00
H1       0.08433    0.33472    0.63422   1.00
C3b      0.15411    0.24696    0.65570   1.00
C4       0.13913    0.29947    0.65283   1.00
O_3      0.06805    0.28960    0.68944   1.00
C5       0.04650    0.26384    0.59110   1.00
H2       0.08188    0.31970    0.59317   1.00
C5       -0.01386   0.25273    0.57791   1.00
H2       0.07466    0.24151    0.58340   1.00
H2       -0.02981   0.28988    0.58265   1.00
H2       -0.05728   0.20105    0.58147   1.00
C5       0.00241    0.25952    0.55503   1.00
H2       0.04908    0.30924    0.55199   1.00
H2       -0.04054   0.25684    0.54607   1.00
H2       0.01006    0.21712    0.54950   1.00
C5       -0.05194   0.22304    0.68632   1.00
H2       -0.06281   0.22604    0.70264   1.00
H2       -0.04037   0.18085    0.68483   1.00
C5       -0.11381   0.20835    0.67307   1.00
H2       -0.16054   0.16364    0.67916   1.00
C5       0.18118    0.57550    0.67076   1.00
H2       0.23744    0.59813    0.67085   1.00
H2       0.16511    0.56157    0.65473   1.00
C5       0.14820    0.51118    0.68436   1.00
H2       0.14369    0.46629    0.67606   1.00
H2       0.09653    0.49983    0.68927   1.00
O_3      0.05226    0.79740    0.67006   1.00
C4       0.19089    0.83575    0.66703   1.00
C3c      0.19203    0.77533    0.66319   1.00
H1       0.17072    0.74777    0.64923   1.00
C3d      0.21981    0.87141    0.68518   1.00
C3       0.21960    0.74902    0.67733   1.00
O2       0.22648    0.69442    0.67147   1.00
C3       0.24612    0.84466    0.69946   1.00
H1       0.26556    0.87252    0.71348   1.00
C2       0.24701    0.78323    0.69592   1.00
C5       0.03978    0.83290    0.68553   1.00
H2       0.01258    0.85913    0.67976   1.00
H2       0.08837    0.87191    0.69275   1.00
C5       -0.00467   0.78110    0.70144   1.00
H2       0.02165    0.75354    0.70679   1.00
H2       -0.05327   0.74279    0.69411   1.00
C5       -0.01875   0.81589    0.71925   1.00
H2       -0.04460   0.84391    0.71399   1.00
H2       0.02956    0.85243    0.72701   1.00
H2       -0.05254   0.77707    0.73050   1.00
C5       0.27149    0.98705    0.68213   1.00
C5       0.16841    0.63284    0.67753   1.00
H2       0.27155    0.98481    0.66528   1.00
H2       0.32089    0.99387    0.68786   1.00
H2       0.12184    0.62746    0.67000   1.00
H2       0.15964    0.63030    0.69428   1.00
H2       0.18016    0.51804    0.69805   1.00
H2       0.29486    1.10694    0.65999   1.00
H2       0.36568    1.12277    0.67646   1.00
C2       0.10095    0.91421    0.62571   1.00
C3       0.16962    0.93128    0.62324   1.00
O2       0.21288    0.98546    0.61110   1.00
C3       0.06240    0.86838    0.64139   1.00
H1       0.00923    0.85292    0.64335   1.00
C3a      0.19844    0.90397    0.63664   1.00
H1       0.25210    0.92057    0.63528   1.00
C3b      0.09180    0.84303    0.65509   1.00
C4       0.16036    0.86087    0.65282   1.00
O_3      0.21535    0.92827    0.69037   1.00
C5       0.22195    0.96165    0.59224   1.00
H2       0.24409    0.92764    0.59420   1.00
C5       0.27119    1.02439    0.57986   1.00
H2       0.17258    0.93298    0.58398   1.00
H2       0.32411    1.04161    0.58510   1.00
H2       0.26048    1.06605    0.58368   1.00
C5       0.26495    1.01099    0.55682   1.00
H2       0.27043    0.96587    0.55346   1.00
H2       0.30528    1.05581    0.54847   1.00
H2       0.21490    1.00213    0.55088   1.00
C5       0.26511    1.04822    0.68852   1.00
H2       0.27683    1.05736    0.70501   1.00
H2       0.21095    1.03485    0.68656   1.00
C5       0.31219    1.11236    0.67608   1.00
H2       0.31152    1.15736    0.68253   1.00
