data_IRMOF10_interpen_symm_ligand3cp_label_i_1.

_audit_creation_method             'generated by an auxiliary program of Tobunporous'

_symmetry_space_group_name_H-M     'P 1'
_symmetry_Int_Tables_number        1
_symmetry_cell_setting             triclinic

_cell_length_a                    22.6523
_cell_length_b                    22.6523
_cell_length_c                    65.9502
_cell_angle_alpha                 90.0000
_cell_angle_beta                  90.0000
_cell_angle_gamma                 120.0000

loop_
_atom_site_label
_atom_site_fract_x
_atom_site_fract_y
_atom_site_fract_z
_atom_site_occupancy
O1       0.00000    0.00000    0.57470   1.00
Zn1      0.00000    0.00000    0.54560   1.00
Zn1      0.94843    0.04287    0.58357   1.00
Zn1      0.09443    0.05157    0.58357   1.00
Zn1      0.95713    0.90557    0.58357   1.00
O2       0.93860    0.02610    0.53560   1.00
O2       0.08750    0.06140    0.53560   1.00
O2       0.97390    0.91250    0.53560   1.00
O2       0.91300    0.07160    0.56150   1.00
O2       0.00463    0.12027    0.60077   1.00
O2       0.87413    0.98077    0.60037   1.00
O2       0.15860    0.08700    0.56150   1.00
O2       0.10663    0.12587    0.60037   1.00
O2       0.11563    0.99537    0.60077   1.00
O2       0.92840    0.84140    0.56150   1.00
O2       0.87973    0.88437    0.60077   1.00
O2       0.01923    0.89337    0.60037   1.00
C1       0.91390    0.06020    0.54330   1.00
C1       0.14630    0.08610    0.54330   1.00
C1       0.93980    0.85370    0.54330   1.00
C1       0.06663    0.14397    0.60637   1.00
C1       0.85603    0.92267    0.60637   1.00
C1       0.07733    0.93337    0.60637   1.00
O1       0.00000    0.00000    0.92530   1.00
Zn1      0.00000    0.00000    0.95440   1.00
Zn1      0.04287    0.94843    0.91643   1.00
Zn1      0.05157    0.09443    0.91643   1.00
Zn1      0.90557    0.95713    0.91643   1.00
O2       0.02610    0.93860    0.96440   1.00
O2       0.06140    0.08750    0.96440   1.00
O2       0.91250    0.97390    0.96440   1.00
O2       0.07160    0.91300    0.93850   1.00
O2       0.12027    0.00463    0.89923   1.00
O2       0.98077    0.87413    0.89963   1.00
O2       0.08700    0.15860    0.93850   1.00
O2       0.12587    0.10663    0.89963   1.00
O2       0.99537    0.11563    0.89923   1.00
O2       0.84140    0.92840    0.93850   1.00
O2       0.88437    0.87973    0.89923   1.00
O2       0.89337    0.01923    0.89963   1.00
C1       0.06020    0.91390    0.95670   1.00
C1       0.08610    0.14630    0.95670   1.00
C1       0.85370    0.93980    0.95670   1.00
C1       0.14397    0.06663    0.89363   1.00
C1       0.92267    0.85603    0.89363   1.00
C1       0.93337    0.07733    0.89363   1.00
O1       0.00000    0.00000    0.42530   1.00
Zn1      0.00000    0.00000    0.45440   1.00
Zn1      0.05157    0.95713    0.41643   1.00
Zn1      0.90557    0.94843    0.41643   1.00
Zn1      0.04287    0.09443    0.41643   1.00
O2       0.06140    0.97390    0.46440   1.00
O2       0.91250    0.93860    0.46440   1.00
O2       0.02610    0.08750    0.46440   1.00
O2       0.08700    0.92840    0.43850   1.00
O2       0.99537    0.87973    0.39923   1.00
O2       0.12587    0.01923    0.39963   1.00
O2       0.84140    0.91300    0.43850   1.00
O2       0.89337    0.87413    0.39963   1.00
O2       0.88437    0.00463    0.39923   1.00
O2       0.07160    0.15860    0.43850   1.00
O2       0.12027    0.11563    0.39923   1.00
O2       0.98077    0.10663    0.39963   1.00
C1       0.08610    0.93980    0.45670   1.00
C1       0.85370    0.91390    0.45670   1.00
C1       0.06020    0.14630    0.45670   1.00
C1       0.93337    0.85603    0.39363   1.00
C1       0.14397    0.07733    0.39363   1.00
C1       0.92267    0.06663    0.39363   1.00
O1       0.00000    0.00000    0.07470   1.00
Zn1      0.00000    0.00000    0.04560   1.00
Zn1      0.95713    0.05157    0.08357   1.00
Zn1      0.94843    0.90557    0.08357   1.00
Zn1      0.09443    0.04287    0.08357   1.00
O2       0.97390    0.06140    0.03560   1.00
O2       0.93860    0.91250    0.03560   1.00
O2       0.08750    0.02610    0.03560   1.00
O2       0.92840    0.08700    0.06150   1.00
O2       0.87973    0.99537    0.10077   1.00
O2       0.01923    0.12587    0.10037   1.00
O2       0.91300    0.84140    0.06150   1.00
O2       0.87413    0.89337    0.10037   1.00
O2       0.00463    0.88437    0.10077   1.00
O2       0.15860    0.07160    0.06150   1.00
O2       0.11563    0.12027    0.10077   1.00
O2       0.10663    0.98077    0.10037   1.00
C1       0.93980    0.08610    0.04330   1.00
C1       0.91390    0.85370    0.04330   1.00
C1       0.14630    0.06020    0.04330   1.00
C1       0.85603    0.93337    0.10637   1.00
C1       0.07733    0.14397    0.10637   1.00
C1       0.06663    0.92267    0.10637   1.00
O1       0.66667    0.33333    0.90803   1.00
Zn1      0.66667    0.33333    0.87893   1.00
Zn1      0.61510    0.37620    0.91690   1.00
Zn1      0.76110    0.38490    0.91690   1.00
Zn1      0.62380    0.23890    0.91690   1.00
O2       0.60527    0.35943    0.86893   1.00
O2       0.75417    0.39473    0.86893   1.00
O2       0.64057    0.24583    0.86893   1.00
O2       0.57967    0.40493    0.89483   1.00
O2       0.67130    0.45360    0.93410   1.00
O2       0.54080    0.31410    0.93370   1.00
O2       0.82527    0.42033    0.89483   1.00
O2       0.77330    0.45920    0.93370   1.00
O2       0.78230    0.32870    0.93410   1.00
O2       0.59507    0.17473    0.89483   1.00
O2       0.54640    0.21770    0.93410   1.00
O2       0.68590    0.22670    0.93370   1.00
C1       0.58057    0.39353    0.87663   1.00
C1       0.81297    0.41943    0.87663   1.00
C1       0.60647    0.18703    0.87663   1.00
C1       0.73330    0.47730    0.93970   1.00
C1       0.52270    0.25600    0.93970   1.00
C1       0.74400    0.26670    0.93970   1.00
O1       0.66667    0.33333    0.25863   1.00
Zn1      0.66667    0.33333    0.28773   1.00
Zn1      0.70953    0.28177    0.24977   1.00
Zn1      0.71823    0.42777    0.24977   1.00
Zn1      0.57223    0.29047    0.24977   1.00
O2       0.69277    0.27193    0.29773   1.00
O2       0.72807    0.42083    0.29773   1.00
O2       0.57917    0.30723    0.29773   1.00
O2       0.73827    0.24633    0.27183   1.00
O2       0.78693    0.33797    0.23257   1.00
O2       0.64743    0.20747    0.23297   1.00
O2       0.75367    0.49193    0.27183   1.00
O2       0.79253    0.43997    0.23297   1.00
O2       0.66203    0.44897    0.23257   1.00
O2       0.50807    0.26173    0.27183   1.00
O2       0.55103    0.21307    0.23257   1.00
O2       0.56003    0.35257    0.23297   1.00
C1       0.72687    0.24723    0.29003   1.00
C1       0.75277    0.47963    0.29003   1.00
C1       0.52037    0.27313    0.29003   1.00
C1       0.81063    0.39997    0.22697   1.00
C1       0.58933    0.18937    0.22697   1.00
C1       0.60003    0.41067    0.22697   1.00
O1       0.66667    0.33333    0.75863   1.00
Zn1      0.66667    0.33333    0.78773   1.00
Zn1      0.71823    0.29047    0.74977   1.00
Zn1      0.57223    0.28177    0.74977   1.00
Zn1      0.70953    0.42777    0.74977   1.00
O2       0.72807    0.30723    0.79773   1.00
O2       0.57917    0.27193    0.79773   1.00
O2       0.69277    0.42083    0.79773   1.00
O2       0.75367    0.26173    0.77183   1.00
O2       0.66203    0.21307    0.73257   1.00
O2       0.79253    0.35257    0.73297   1.00
O2       0.50807    0.24633    0.77183   1.00
O2       0.56003    0.20747    0.73297   1.00
O2       0.55103    0.33797    0.73257   1.00
O2       0.73827    0.49193    0.77183   1.00
O2       0.78693    0.44897    0.73257   1.00
O2       0.64743    0.43997    0.73297   1.00
C1       0.75277    0.27313    0.79003   1.00
C1       0.52037    0.24723    0.79003   1.00
C1       0.72687    0.47963    0.79003   1.00
C1       0.60003    0.18937    0.72697   1.00
C1       0.81063    0.41067    0.72697   1.00
C1       0.58933    0.39997    0.72697   1.00
O1       0.66667    0.33333    0.40803   1.00
Zn1      0.66667    0.33333    0.37893   1.00
Zn1      0.62380    0.38490    0.41690   1.00
Zn1      0.61510    0.23890    0.41690   1.00
Zn1      0.76110    0.37620    0.41690   1.00
O2       0.64057    0.39473    0.36893   1.00
O2       0.60527    0.24583    0.36893   1.00
O2       0.75417    0.35943    0.36893   1.00
O2       0.59507    0.42033    0.39483   1.00
O2       0.54640    0.32870    0.43410   1.00
O2       0.68590    0.45920    0.43370   1.00
O2       0.57967    0.17473    0.39483   1.00
O2       0.54080    0.22670    0.43370   1.00
O2       0.67130    0.21770    0.43410   1.00
O2       0.82527    0.40493    0.39483   1.00
O2       0.78230    0.45360    0.43410   1.00
O2       0.77330    0.31410    0.43370   1.00
C1       0.60647    0.41943    0.37663   1.00
C1       0.58057    0.18703    0.37663   1.00
C1       0.81297    0.39353    0.37663   1.00
C1       0.52270    0.26670    0.43970   1.00
C1       0.74400    0.47730    0.43970   1.00
C1       0.73330    0.25600    0.43970   1.00
O1       0.33333    0.66667    0.24137   1.00
Zn1      0.33333    0.66667    0.21227   1.00
Zn1      0.28177    0.70953    0.25023   1.00
Zn1      0.42777    0.71823    0.25023   1.00
Zn1      0.29047    0.57223    0.25023   1.00
O2       0.27193    0.69277    0.20227   1.00
O2       0.42083    0.72807    0.20227   1.00
O2       0.30723    0.57917    0.20227   1.00
O2       0.24633    0.73827    0.22817   1.00
O2       0.33797    0.78693    0.26743   1.00
O2       0.20747    0.64743    0.26703   1.00
O2       0.49193    0.75367    0.22817   1.00
O2       0.43997    0.79253    0.26703   1.00
O2       0.44897    0.66203    0.26743   1.00
O2       0.26173    0.50807    0.22817   1.00
O2       0.21307    0.55103    0.26743   1.00
O2       0.35257    0.56003    0.26703   1.00
C1       0.24723    0.72687    0.20997   1.00
C1       0.47963    0.75277    0.20997   1.00
C1       0.27313    0.52037    0.20997   1.00
C1       0.39997    0.81063    0.27303   1.00
C1       0.18937    0.58933    0.27303   1.00
C1       0.41067    0.60003    0.27303   1.00
O1       0.33333    0.66667    0.59197   1.00
Zn1      0.33333    0.66667    0.62107   1.00
Zn1      0.37620    0.61510    0.58310   1.00
Zn1      0.38490    0.76110    0.58310   1.00
Zn1      0.23890    0.62380    0.58310   1.00
O2       0.35943    0.60527    0.63107   1.00
O2       0.39473    0.75417    0.63107   1.00
O2       0.24583    0.64057    0.63107   1.00
O2       0.40493    0.57967    0.60517   1.00
O2       0.45360    0.67130    0.56590   1.00
O2       0.31410    0.54080    0.56630   1.00
O2       0.42033    0.82527    0.60517   1.00
O2       0.45920    0.77330    0.56630   1.00
O2       0.32870    0.78230    0.56590   1.00
O2       0.17473    0.59507    0.60517   1.00
O2       0.21770    0.54640    0.56590   1.00
O2       0.22670    0.68590    0.56630   1.00
C1       0.39353    0.58057    0.62337   1.00
C1       0.41943    0.81297    0.62337   1.00
C1       0.18703    0.60647    0.62337   1.00
C1       0.47730    0.73330    0.56030   1.00
C1       0.25600    0.52270    0.56030   1.00
C1       0.26670    0.74400    0.56030   1.00
O1       0.33333    0.66667    0.09197   1.00
Zn1      0.33333    0.66667    0.12107   1.00
Zn1      0.38490    0.62380    0.08310   1.00
Zn1      0.23890    0.61510    0.08310   1.00
Zn1      0.37620    0.76110    0.08310   1.00
O2       0.39473    0.64057    0.13107   1.00
O2       0.24583    0.60527    0.13107   1.00
O2       0.35943    0.75417    0.13107   1.00
O2       0.42033    0.59507    0.10517   1.00
O2       0.32870    0.54640    0.06590   1.00
O2       0.45920    0.68590    0.06630   1.00
O2       0.17473    0.57967    0.10517   1.00
O2       0.22670    0.54080    0.06630   1.00
O2       0.21770    0.67130    0.06590   1.00
O2       0.40493    0.82527    0.10517   1.00
O2       0.45360    0.78230    0.06590   1.00
O2       0.31410    0.77330    0.06630   1.00
C1       0.41943    0.60647    0.12337   1.00
C1       0.18703    0.58057    0.12337   1.00
C1       0.39353    0.81297    0.12337   1.00
C1       0.26670    0.52270    0.06030   1.00
C1       0.47730    0.74400    0.06030   1.00
C1       0.25600    0.73330    0.06030   1.00
O1       0.33333    0.66667    0.74137   1.00
Zn1      0.33333    0.66667    0.71227   1.00
Zn1      0.29047    0.71823    0.75023   1.00
Zn1      0.28177    0.57223    0.75023   1.00
Zn1      0.42777    0.70953    0.75023   1.00
O2       0.30723    0.72807    0.70227   1.00
O2       0.27193    0.57917    0.70227   1.00
O2       0.42083    0.69277    0.70227   1.00
O2       0.26173    0.75367    0.72817   1.00
O2       0.21307    0.66203    0.76743   1.00
O2       0.35257    0.79253    0.76703   1.00
O2       0.24633    0.50807    0.72817   1.00
O2       0.20747    0.56003    0.76703   1.00
O2       0.33797    0.55103    0.76743   1.00
O2       0.49193    0.73827    0.72817   1.00
O2       0.44897    0.78693    0.76743   1.00
O2       0.43997    0.64743    0.76703   1.00
C1       0.27313    0.75277    0.70997   1.00
C1       0.24723    0.52037    0.70997   1.00
C1       0.47963    0.72687    0.70997   1.00
C1       0.18937    0.60003    0.77303   1.00
C1       0.41067    0.81063    0.77303   1.00
C1       0.39997    0.58933    0.77303   1.00
C4       0.86448    0.69765    0.49732   1.00
C4       0.83815    0.64469    0.48241   1.00
C3       0.93108    0.75544    0.49653   1.00
C3       0.87775    0.64106    0.46627   1.00
C3       0.82271    0.69255    0.51420   1.00
C3       0.76835    0.59220    0.48350   1.00
C2       0.91516    0.80083    0.52860   1.00
C2       0.78155    0.53508    0.45313   1.00
C3       0.95590    0.80543    0.51179   1.00
C3       0.85010    0.58814    0.45192   1.00
C3       0.84824    0.74418    0.52924   1.00
C3       0.74227    0.53776    0.46940   1.00
H1       0.96342    0.76302    0.48481   1.00
H1       0.92795    0.67652    0.46454   1.00
C5       0.75560    0.63608    0.51591   1.00
C5       0.72506    0.59389    0.49874   1.00
H1       1.00467    0.84584    0.51048   1.00
H1       0.88100    0.58846    0.44047   1.00
H1       0.81703    0.74081    0.54097   1.00
H1       0.69346    0.49833    0.47115   1.00
O3       0.71982    0.62544    0.53372   1.00
O3       0.65512    0.55192    0.49771   1.00
Si1      0.72224    0.57524    0.55108   1.00
Si1      0.61061    0.57643    0.48433   1.00
C6       0.67915    0.59342    0.57022   1.00
C6       0.67270    0.49080    0.54225   1.00
C6       0.80587    0.59849    0.55867   1.00
C6       0.65458    0.65449    0.47102   1.00
C6       0.56768    0.50936    0.46698   1.00
C6       0.54946    0.57728    0.50065   1.00
C6       0.70428    0.67086    0.57386   1.00
H2       0.62797    0.57211    0.56386   1.00
C6       0.66898    0.56140    0.59196   1.00
H2       0.63772    0.49520    0.53181   1.00
C6       0.70869    0.45939    0.52958   1.00
C6       0.62637    0.43390    0.55773   1.00
H2       0.82881    0.65335    0.56113   1.00
C6       0.81408    0.56818    0.57915   1.00
C6       0.85400    0.58884    0.54352   1.00
C6       0.70156    0.72052    0.48341   1.00
C6       0.69480    0.65863    0.45123   1.00
H2       0.61289    0.66127    0.46552   1.00
H2       0.60797    0.51403    0.45688   1.00
C6       0.53450    0.43553    0.47595   1.00
C6       0.51250    0.51124    0.45317   1.00
H2       0.50897    0.52400    0.50131   1.00
C6       0.57180    0.59767    0.52312   1.00
C6       0.51433    0.61867    0.49393   1.00
H2       0.70287    0.69609    0.55990   1.00
H2       0.75651    0.69772    0.57965   1.00
H2       0.67176    0.67748    0.58480   1.00
H2       0.62055    0.55218    0.59836   1.00
H2       0.66831    0.51308    0.59196   1.00
H2       0.70872    0.59524    0.60253   1.00
H2       0.67112    0.41371    0.52152   1.00
H2       0.74241    0.49445    0.51806   1.00
H2       0.73809    0.44457    0.53932   1.00
H2       0.59134    0.44635    0.56544   1.00
H2       0.59451    0.38511    0.55009   1.00
H2       0.65699    0.42603    0.56905   1.00
H2       0.78275    0.51264    0.57929   1.00
H2       0.86697    0.58145    0.58190   1.00
H2       0.80031    0.58870    0.59203   1.00
H2       0.84772    0.53789    0.54450   1.00
H2       0.84615    0.59702    0.52780   1.00
H2       0.90736    0.62518    0.54704   1.00
H2       0.75181    0.72659    0.48599   1.00
H2       0.70929    0.76575    0.47516   1.00
H2       0.67967    0.72104    0.49806   1.00
H2       0.71082    0.70673    0.44328   1.00
H2       0.74075    0.65630    0.45438   1.00
H2       0.66373    0.61817    0.44051   1.00
H2       0.51950    0.39798    0.46375   1.00
H2       0.57035    0.42936    0.48557   1.00
H2       0.48913    0.42266    0.48491   1.00
H2       0.53194    0.56058    0.44574   1.00
H2       0.49677    0.47296    0.44115   1.00
H2       0.46699    0.50025    0.46182   1.00
H2       0.61429    0.64972    0.52446   1.00
H2       0.52983    0.59304    0.53246   1.00
H2       0.58777    0.56382    0.52960   1.00
H2       0.47062    0.60679    0.50365   1.00
H2       0.54953    0.67359    0.49485   1.00
H2       0.49507    0.60641    0.47845   1.00
C4       0.30962    0.16866    0.49955   1.00
C4       0.36111    0.19329    0.48419   1.00
C3       0.31232    0.13534    0.51747   1.00
C3       0.41716    0.18159    0.48434   1.00
C3       0.25141    0.17659    0.49684   1.00
C3       0.35704    0.23200    0.46772   1.00
C2       0.20177    0.11730    0.52939   1.00
C2       0.46232    0.24350    0.45234   1.00
C3       0.25973    0.11001    0.53193   1.00
C3       0.46673    0.20653    0.46896   1.00
C3       0.19952    0.15181    0.51179   1.00
C3       0.40591    0.25416    0.45193   1.00
H1       0.35268    0.12871    0.52058   1.00
H1       0.42339    0.15426    0.49556   1.00
C5       0.24557    0.20946    0.47925   1.00
C5       0.30397    0.24790    0.46697   1.00
H1       0.26425    0.08592    0.54453   1.00
H1       0.50646    0.19701    0.46995   1.00
H1       0.15899    0.15954    0.50991   1.00
H1       0.39985    0.27801    0.43960   1.00
O3       0.18475    0.20696    0.47505   1.00
O3       0.30649    0.29603    0.45356   1.00
Si1      0.12896    0.14722    0.46027   1.00
Si1      0.34840    0.37631    0.46003   1.00
C6       0.06199    0.16458    0.46415   1.00
C6       0.16055    0.16712    0.43527   1.00
C6       0.10587    0.06414    0.46842   1.00
C6       0.39122    0.39811    0.48363   1.00
C6       0.40805    0.41410    0.44036   1.00
C6       0.29096    0.40727    0.45866   1.00
C6       0.04711    0.17412    0.48678   1.00
H2       0.08221    0.21477    0.45718   1.00
C6       -0.00990   0.11883    0.45423   1.00
H2       0.19396    0.22229    0.43610   1.00
C6       0.20612    0.13818    0.42729   1.00
C6       0.10935    0.15484    0.41764   1.00
H2       0.09593    0.06609    0.48455   1.00
C6       0.03889    0.00360    0.45938   1.00
C6       0.15922    0.03918    0.46698   1.00
C6       0.34841    0.36467    0.50321   1.00
C6       0.45916    0.39641    0.48611   1.00
H2       0.40761    0.45223    0.48488   1.00
H2       0.44343    0.39528    0.44275   1.00
C6       0.38007    0.39176    0.41830   1.00
C6       0.45203    0.49369    0.44014   1.00
H2       0.28959    0.41769    0.44255   1.00
C6       0.21546    0.35593    0.46440   1.00
C6       0.31008    0.47530    0.47000   1.00
H2       0.09274    0.21371    0.49434   1.00
H2       0.02859    0.12684    0.49539   1.00
H2       0.00871    0.18979    0.48777   1.00
H2       -0.03301   0.14984    0.45046   1.00
H2       -0.00764   0.09414    0.44035   1.00
H2       -0.04535   0.07885    0.46447   1.00
H2       0.23381    0.16535    0.41364   1.00
H2       0.24454    0.14423    0.43830   1.00
H2       0.17536    0.08427    0.42338   1.00
H2       0.08140    0.18179    0.42033   1.00
H2       0.13599    0.17404    0.40320   1.00
H2       0.07299    0.10055    0.41572   1.00
H2       0.03974    0.00481    0.44282   1.00
H2       0.03121    -0.04604   0.46417   1.00
H2       -0.00594   0.00475    0.46468   1.00
H2       0.15809    0.01684    0.45221   1.00
H2       0.21130    0.07927    0.46956   1.00
H2       0.14790    -0.00018   0.47838   1.00
H2       0.34157    0.31416    0.50588   1.00
H2       0.37428    0.39559    0.51654   1.00
H2       0.29827    0.36011    0.50256   1.00
H2       0.48422    0.42019    0.50042   1.00
H2       0.45063    0.34468    0.48628   1.00
H2       0.49578    0.42472    0.47415   1.00
H2       0.42222    0.40855    0.40753   1.00
H2       0.34956    0.33629    0.41700   1.00
H2       0.34867    0.41328    0.41348   1.00
H2       0.47544    0.51388    0.45487   1.00
H2       0.49357    0.51050    0.42914   1.00
H2       0.42159    0.51690    0.43587   1.00
H2       0.21026    0.33933    0.48014   1.00
H2       0.18256    0.37778    0.46200   1.00
H2       0.19599    0.31099    0.45484   1.00
H2       0.27618    0.49438    0.46548   1.00
H2       0.30583    0.46806    0.48643   1.00
H2       0.36185    0.51539    0.46648   1.00
C4       0.83244    0.14183    0.49948   1.00
C4       0.80765    0.16843    0.48410   1.00
C3       0.87706    0.18209    0.51528   1.00
C3       0.82982    0.23888    0.48190   1.00
C3       0.81267    0.07129    0.49901   1.00
C3       0.75777    0.12256    0.47006   1.00
C2       0.88301    0.08490    0.52943   1.00
C2       0.75619    0.21839    0.45230   1.00
C3       0.90198    0.15455    0.52978   1.00
C3       0.80435    0.26314    0.46656   1.00
C3       0.83736    0.04421    0.51400   1.00
C3       0.73494    0.14835    0.45419   1.00
H1       0.89258    0.23255    0.51676   1.00
H1       0.86542    0.27468    0.49129   1.00
C5       0.76815    0.02820    0.48362   1.00
C5       0.73134    0.05132    0.47180   1.00
H1       0.93451    0.18625    0.54076   1.00
H1       0.82180    0.31455    0.46581   1.00
H1       0.82124    -0.00686   0.51380   1.00
H1       0.70253    0.11533    0.44351   1.00
O3       0.75831    -0.03655   0.48119   1.00
O3       0.67404    0.00549    0.46111   1.00
Si1      0.80512    -0.04983   0.46504   1.00
Si1      0.59895    -0.01792   0.47060   1.00
C6       0.77700    -0.13523   0.47186   1.00
C6       0.77726    -0.04458   0.44048   1.00
C6       0.89352    0.00261    0.46926   1.00
C6       0.59456    0.01895    0.49379   1.00
C6       0.55946    0.00386    0.45143   1.00
C6       0.55545    -0.10746   0.47268   1.00
C6       0.77526    -0.14971   0.49517   1.00
H2       0.72368    -0.16110   0.46709   1.00
C6       0.80850    -0.17604   0.46176   1.00
H2       0.72469    -0.05732   0.44328   1.00
C6       0.81204    0.02637    0.42963   1.00
C6       0.77297    -0.09625   0.42397   1.00
H2       0.89755    -0.00270   0.48560   1.00
C6       0.94205    -0.01943   0.45907   1.00
C6       0.92857    0.08124    0.46485   1.00
C6       0.63228    0.01131    0.51260   1.00
C6       0.60928    0.09431    0.49407   1.00
H2       0.54040    -0.01090   0.49747   1.00
H2       0.58675    0.05948    0.45169   1.00
C6       0.56773    -0.01596   0.42928   1.00
C6       0.48222    -0.01966   0.45421   1.00
H2       0.53631    -0.12522   0.45739   1.00
C6       0.59987    -0.14032   0.47785   1.00
C6       0.49183    -0.14231   0.48701   1.00
H2       0.74464    -0.13262   0.50340   1.00
H2       0.82656    -0.12390   0.50166   1.00
H2       0.75244    -0.20430   0.49817   1.00
H2       0.76970    -0.22990   0.46043   1.00
H2       0.82844    -0.15781   0.44664   1.00
H2       0.84991    -0.17409   0.47077   1.00
H2       0.78126    0.02598    0.41679   1.00
H2       0.81755    0.06698    0.43967   1.00
H2       0.86223    0.03949    0.42378   1.00
H2       0.74078    -0.14888   0.42894   1.00
H2       0.75012    -0.09105   0.40994   1.00
H2       0.82356    -0.08792   0.42021   1.00
H2       0.93287    -0.02685   0.44276   1.00
H2       0.99588    0.01843    0.46133   1.00
H2       0.93567    -0.06614   0.46573   1.00
H2       0.94499    0.09336    0.44909   1.00
H2       0.89612    0.10261    0.46800   1.00
H2       0.97404    0.10898    0.47431   1.00
H2       0.68616    0.04990    0.51269   1.00
H2       0.61028    0.01744    0.52666   1.00
H2       0.62819    -0.03864   0.51323   1.00
H2       0.59521    0.10633    0.50874   1.00
H2       0.66294    0.13107    0.49168   1.00
H2       0.57965    0.10320    0.48269   1.00
H2       0.55189    0.00958    0.41828   1.00
H2       0.62088    -0.00006   0.42591   1.00
H2       0.53708    -0.07077   0.42665   1.00
H2       0.47190    -0.00603   0.46914   1.00
H2       0.46614    0.00513    0.44300   1.00
H2       0.45021    -0.07469   0.45218   1.00
H2       0.62428    -0.12428   0.49265   1.00
H2       0.56979    -0.19597   0.47768   1.00
H2       0.63972    -0.12553   0.46657   1.00
H2       0.46350    -0.19750   0.48462   1.00
H2       0.50677    -0.13325   0.50297   1.00
H2       0.45637    -0.12393   0.48414   1.00
C4       0.69757    0.86479    0.00265   1.00
C4       0.64457    0.83837    0.01755   1.00
C3       0.75286    0.93292    0.00270   1.00
C3       0.63820    0.87895    0.03286   1.00
C3       0.69510    0.82143    -0.01343   1.00
C3       0.59495    0.76745    0.01733   1.00
C2       0.80088    0.91532    -0.02859   1.00
C2       0.53503    0.78139    0.04686   1.00
C3       0.80290    0.95764    -0.01255   1.00
C3       0.58533    0.85117    0.04723   1.00
C3       0.74677    0.84698    -0.02846   1.00
C3       0.54042    0.74104    0.03140   1.00
H1       0.75854    0.96651    0.01384   1.00
H1       0.67152    0.92996    0.03395   1.00
C5       0.64120    0.75275    -0.01437   1.00
C5       0.59955    0.72333    0.00298   1.00
H1       0.84142    1.00752    -0.01181   1.00
H1       0.58361    0.88285    0.05806   1.00
H1       0.74537    0.81475    -0.03959   1.00
H1       0.50291    0.69111    0.03023   1.00
O3       0.63265    0.71466    -0.03155   1.00
O3       0.56075    0.65329    0.00496   1.00
Si1      0.58089    0.71096    -0.04940   1.00
Si1      0.58875    0.61407    0.01943   1.00
C6       0.60251    0.66747    -0.06751   1.00
C6       0.49698    0.65912    -0.04043   1.00
C6       0.59957    0.79195    -0.05839   1.00
C6       0.66628    0.66369    0.03259   1.00
C6       0.52226    0.57112    0.03694   1.00
C6       0.59364    0.55248    0.00432   1.00
C6       0.68072    0.69613    -0.07090   1.00
H2       0.58376    0.61773    -0.06036   1.00
C6       0.57032    0.65208    -0.08931   1.00
H2       0.50367    0.62734    -0.02927   1.00
C6       0.46224    0.69387    -0.02877   1.00
C6       0.44142    0.60826    -0.05551   1.00
H2       0.65466    0.81723    -0.06078   1.00
C6       0.56797    0.79461    -0.07928   1.00
C6       0.58646    0.84021    -0.04429   1.00
C6       0.73141    0.71129    0.01993   1.00
C6       0.66784    0.70596    0.05161   1.00
H2       0.67589    0.62478    0.03896   1.00
H2       0.52443    0.61192    0.04629   1.00
C6       0.44837    0.53288    0.02794   1.00
C6       0.52760    0.52021    0.05182   1.00
H2       0.54133    0.50987    0.00395   1.00
C6       0.61338    0.57173    -0.01836   1.00
C6       0.63847    0.52234    0.01210   1.00
H2       0.70670    0.69865    -0.05670   1.00
H2       0.70511    0.74733    -0.07744   1.00
H2       0.68969    0.66341    -0.08112   1.00
H2       0.56395    0.60372    -0.09485   1.00
H2       0.52057    0.64832    -0.08976   1.00
H2       0.60273    0.69091    -0.10032   1.00
H2       0.41751    0.65597    -0.02042   1.00
H2       0.49613    0.73054    -0.01760   1.00
H2       0.44517    0.71972    -0.03920   1.00
H2       0.45654    0.57401    -0.06241   1.00
H2       0.39313    0.57560    -0.04773   1.00
H2       0.43145    0.63547    -0.06748   1.00
H2       0.51275    0.76077    -0.07934   1.00
H2       0.57829    0.84606    -0.08294   1.00
H2       0.59009    0.78057    -0.09168   1.00
H2       0.53437    0.83071    -0.04563   1.00
H2       0.59528    0.83570    -0.02837   1.00
H2       0.62053    0.89349    -0.04850   1.00
H2       0.73448    0.75976    0.01643   1.00
H2       0.77746    0.72300    0.02844   1.00
H2       0.73344    0.68784    0.00573   1.00
H2       0.71632    0.72581    0.05968   1.00
H2       0.66254    0.74964    0.04755   1.00
H2       0.62806    0.67509    0.06253   1.00
H2       0.41054    0.51795    0.04006   1.00
H2       0.43979    0.56553    0.01758   1.00
H2       0.43806    0.48682    0.01975   1.00
H2       0.57716    0.54335    0.05933   1.00
H2       0.48908    0.50450    0.06377   1.00
H2       0.51924    0.47419    0.04397   1.00
H2       0.66431    0.61588    -0.02003   1.00
H2       0.61135    0.52943    -0.02690   1.00
H2       0.57754    0.58392    -0.02545   1.00
H2       0.62909    0.47782    0.00314   1.00
H2       0.69282    0.55970    0.01102   1.00
H2       0.62696    0.50545    0.02782   1.00
C4       0.16865    0.30962    0.00045   1.00
C4       0.19328    0.36111    0.01581   1.00
C3       0.13522    0.31225    -0.01745   1.00
C3       0.18148    0.41709    0.01568   1.00
C3       0.17670    0.25148    0.00315   1.00
C3       0.23210    0.35711    0.03226   1.00
C2       0.11730    0.20177    -0.02939   1.00
C2       0.24350    0.46232    0.04766   1.00
C3       0.10989    0.25967    -0.03192   1.00
C3       0.20642    0.46666    0.03106   1.00
C3       0.15192    0.19958    -0.01180   1.00
C3       0.25427    0.40598    0.04805   1.00
H1       0.12849    0.35257    -0.02055   1.00
H1       0.15406    0.42326    0.00448   1.00
C5       0.20969    0.24569    0.02071   1.00
C5       0.24811    0.30412    0.03299   1.00
H1       0.08571    0.26414    -0.04450   1.00
H1       0.19682    0.50634    0.03009   1.00
H1       0.15974    0.15910    -0.00994   1.00
H1       0.27821    0.39996    0.06037   1.00
O3       0.20731    0.18492    0.02490   1.00
O3       0.29634    0.30671    0.04638   1.00
Si1      0.14768    0.12909    0.03970   1.00
Si1      0.37659    0.34873    0.03987   1.00
C6       0.16515    0.06220    0.03578   1.00
C6       0.16766    0.16068    0.06469   1.00
C6       0.06453    0.10586    0.03159   1.00
C6       0.39823    0.39155    0.01627   1.00
C6       0.41440    0.40839    0.05953   1.00
C6       0.40768    0.29139    0.04121   1.00
C6       0.17462    0.04735    0.01315   1.00
H2       0.21538    0.08249    0.04274   1.00
C6       0.11954    -0.00971   0.04572   1.00
H2       0.22281    0.19416    0.06385   1.00
C6       0.13864    0.20616    0.07270   1.00
C6       0.15553    0.10950    0.08231   1.00
H2       0.06643    0.09594    0.01545   1.00
C6       0.00409    0.03884    0.04064   1.00
C6       0.03947    0.15913    0.03305   1.00
C6       0.36475    0.34872    -0.00330   1.00
C6       0.39639    0.45943    0.01381   1.00
H2       0.45236    0.40801    0.01499   1.00
H2       0.39549    0.44371    0.05716   1.00
C6       0.39219    0.38040    0.08160   1.00
C6       0.49398    0.45247    0.05972   1.00
H2       0.41819    0.29005    0.05732   1.00
C6       0.35641    0.21587    0.03548   1.00
C6       0.47569    0.31061    0.02984   1.00
H2       0.21414    0.09301    0.00558   1.00
H2       0.12730    0.02876    0.00456   1.00
H2       0.19037    0.00900    0.01215   1.00
H2       0.15063    -0.03274   0.04946   1.00
H2       0.09488    -0.00749   0.05961   1.00
H2       0.07954    -0.04520   0.03549   1.00
H2       0.16586    0.23388    0.08635   1.00
H2       0.14458    0.24456    0.06169   1.00
H2       0.08476    0.17534    0.07663   1.00
H2       0.18254    0.08162    0.07960   1.00
H2       0.17477    0.13615    0.09675   1.00
H2       0.10127    0.07308    0.08426   1.00
H2       0.00538    0.03969    0.05720   1.00
H2       -0.04560   0.03108    0.03587   1.00
H2       0.00530    -0.00595   0.03533   1.00
H2       0.01718    0.15796    0.04783   1.00
H2       0.07949    0.21123    0.03046   1.00
H2       0.00004    0.14775    0.02167   1.00
H2       0.31419    0.34179    -0.00595   1.00
H2       0.39559    0.37461    -0.01664   1.00
H2       0.36027    0.29861    -0.00266   1.00
H2       0.42009    0.48450    -0.00051   1.00
H2       0.34464    0.45081    0.01366   1.00
H2       0.42472    0.49606    0.02577   1.00
H2       0.40897    0.42254    0.09238   1.00
H2       0.33673    0.34982    0.08292   1.00
H2       0.41381    0.34907    0.08640   1.00
H2       0.51408    0.47589    0.04499   1.00
H2       0.51079    0.49401    0.07072   1.00
H2       0.51728    0.42210    0.06398   1.00
H2       0.33973    0.21064    0.01974   1.00
H2       0.37835    0.18303    0.03786   1.00
H2       0.31150    0.19634    0.04505   1.00
H2       0.49486    0.27677    0.03434   1.00
H2       0.46838    0.30636    0.01341   1.00
H2       0.51574    0.36241    0.03335   1.00
C4       0.14183    0.83244    0.00052   1.00
C4       0.16843    0.80765    0.01590   1.00
C3       0.18209    0.87706    -0.01528   1.00
C3       0.23888    0.82982    0.01810   1.00
C3       0.07129    0.81267    0.00099   1.00
C3       0.12256    0.75777    0.02994   1.00
C2       0.08490    0.88301    -0.02943   1.00
C2       0.21839    0.75619    0.04770   1.00
C3       0.15455    0.90198    -0.02978   1.00
C3       0.26314    0.80435    0.03344   1.00
C3       0.04421    0.83736    -0.01400   1.00
C3       0.14835    0.73494    0.04581   1.00
H1       0.23255    0.89258    -0.01676   1.00
H1       0.27468    0.86542    0.00871   1.00
C5       0.02820    0.76815    0.01638   1.00
C5       0.05132    0.73134    0.02820   1.00
H1       0.18625    0.93451    -0.04076   1.00
H1       0.31455    0.82180    0.03419   1.00
H1       -0.00686   0.82124    -0.01380   1.00
H1       0.11533    0.70253    0.05649   1.00
O3       -0.03655   0.75831    0.01881   1.00
O3       0.00549    0.67404    0.03889   1.00
Si1      -0.04983   0.80512    0.03496   1.00
Si1      -0.01792   0.59896    0.02940   1.00
C6       -0.13523   0.77701    0.02814   1.00
C6       -0.04458   0.77726    0.05952   1.00
C6       0.00261    0.89352    0.03074   1.00
C6       0.01895    0.59456    0.00621   1.00
C6       0.00386    0.55946    0.04857   1.00
C6       -0.10746   0.55545    0.02732   1.00
C6       -0.14971   0.77526    0.00483   1.00
H2       -0.16110   0.72369    0.03291   1.00
C6       -0.17603   0.80851    0.03824   1.00
H2       -0.05732   0.72470    0.05672   1.00
C6       0.02638    0.81204    0.07037   1.00
C6       -0.09624   0.77297    0.07603   1.00
H2       -0.00269   0.89756    0.01440   1.00
C6       -0.01942   0.94205    0.04093   1.00
C6       0.08124    0.92857    0.03515   1.00
C6       0.01130    0.63227    -0.01260   1.00
C6       0.09430    0.60927    0.00593   1.00
H2       -0.01090   0.54040    0.00253   1.00
H2       0.05948    0.58675    0.04832   1.00
C6       -0.01596   0.56773    0.07072   1.00
C6       -0.01966   0.48222    0.04579   1.00
H2       -0.12522   0.53631    0.04261   1.00
C6       -0.14033   0.59988    0.02215   1.00
C6       -0.14231   0.49183    0.01300   1.00
H2       -0.13262   0.74464    -0.00340   1.00
H2       -0.12389   0.82656    -0.00166   1.00
H2       -0.20430   0.75244    0.00183   1.00
H2       -0.22990   0.76970    0.03957   1.00
H2       -0.15780   0.82845    0.05336   1.00
H2       -0.17409   0.84992    0.02923   1.00
H2       0.02598    0.78127    0.08321   1.00
H2       0.06698    0.81756    0.06033   1.00
H2       0.03950    0.86223    0.07622   1.00
H2       -0.14888   0.74078    0.07106   1.00
H2       -0.09104   0.75013    0.09006   1.00
H2       -0.08792   0.82357    0.07979   1.00
H2       -0.02684   0.93287    0.05724   1.00
H2       0.01844    0.99588    0.03867   1.00
H2       -0.06614   0.93567    0.03427   1.00
H2       0.09336    0.94500    0.05091   1.00
H2       0.10261    0.89612    0.03200   1.00
H2       0.10899    0.97405    0.02569   1.00
H2       0.04990    0.68616    -0.01269   1.00
H2       0.01744    0.61028    -0.02666   1.00
H2       -0.03864   0.62819    -0.01323   1.00
H2       0.10632    0.59521    -0.00873   1.00
H2       0.13107    0.66294    0.00832   1.00
H2       0.10320    0.57965    0.01731   1.00
H2       0.00958    0.55189    0.08173   1.00
H2       -0.00006   0.62089    0.07409   1.00
H2       -0.07077   0.53708    0.07335   1.00
H2       -0.00603   0.47190    0.03087   1.00
H2       0.00512    0.46615    0.05700   1.00
H2       -0.07469   0.45021    0.04782   1.00
H2       -0.12429   0.62429    0.00735   1.00
H2       -0.19597   0.56980    0.02232   1.00
H2       -0.12553   0.63973    0.03344   1.00
H2       -0.19750   0.46350    0.01538   1.00
H2       -0.13325   0.50677    -0.00296   1.00
H2       -0.12393   0.45637    0.01586   1.00
C4       0.13519    0.30773    0.50105   1.00
C4       0.16162    0.35908    0.51644   1.00
C3       0.06701    0.27625    0.49386   1.00
C3       0.12100    0.37959    0.52747   1.00
C3       0.17862    0.28545    0.49247   1.00
C3       0.23259    0.39231    0.52120   1.00
C2       0.08468    0.20184    0.47059   1.00
C2       0.21861    0.46225    0.54768   1.00
C3       0.04229    0.22450    0.47914   1.00
C3       0.14879    0.43020    0.54252   1.00
C3       0.15307    0.23407    0.47736   1.00
C3       0.25901    0.44108    0.53702   1.00
H1       0.03337    0.29017    0.49906   1.00
H1       0.06996    0.35807    0.52497   1.00
C5       0.24736    0.31484    0.49897   1.00
C5       0.27673    0.37634    0.51029   1.00
H1       -0.00763   0.20326    0.47463   1.00
H1       0.11708    0.44337    0.54987   1.00
H1       0.18534    0.21995    0.47093   1.00
H1       0.30898    0.46122    0.54111   1.00
O3       0.28555    0.28567    0.49323   1.00
O3       0.34677    0.41677    0.51178   1.00
Si1      0.28953    0.22990    0.50801   1.00
Si1      0.38574    0.48405    0.49734   1.00
C6       0.33302    0.20484    0.49095   1.00
C6       0.34146    0.27468    0.52886   1.00
C6       0.20867    0.16061    0.51438   1.00
C6       0.33588    0.50363    0.48104   1.00
C6       0.42870    0.55062    0.51483   1.00
C6       0.44734    0.47580    0.48325   1.00
C6       0.30420    0.18852    0.46878   1.00
H2       0.38270    0.25118    0.48972   1.00
C6       0.34865    0.14665    0.49657   1.00
H2       0.37310    0.32560    0.52253   1.00
C6       0.30678    0.28444    0.54809   1.00
C6       0.39253    0.25299    0.53721   1.00
H2       0.18328    0.14625    0.49963   1.00
C6       0.20626    0.09496    0.52300   1.00
C6       0.16041    0.17246    0.52886   1.00
C6       0.28825    0.44827    0.46541   1.00
C6       0.29352    0.53484    0.49011   1.00
H2       0.37465    0.54510    0.47190   1.00
H2       0.38787    0.55484    0.52223   1.00
C6       0.46716    0.53710    0.53235   1.00
C6       0.47940    0.62290    0.50615   1.00
H2       0.49004    0.49231    0.49374   1.00
C6       0.42823    0.40196    0.47699   1.00
C6       0.47725    0.52077    0.46379   1.00
H2       0.30151    0.23129    0.46212   1.00
H2       0.25306    0.14380    0.46840   1.00
H2       0.33693    0.17858    0.45885   1.00
H2       0.39700    0.15714    0.48978   1.00
H2       0.35255    0.14135    0.51282   1.00
H2       0.30986    0.09700    0.49079   1.00
H2       0.34469    0.32440    0.55790   1.00
H2       0.26998    0.30018    0.54421   1.00
H2       0.28109    0.23767    0.55703   1.00
H2       0.42673    0.25426    0.52534   1.00
H2       0.42522    0.28791    0.54905   1.00
H2       0.36547    0.20188    0.54378   1.00
H2       0.24021    0.10706    0.53602   1.00
H2       0.15488    0.05667    0.52783   1.00
H2       0.22031    0.06981    0.51152   1.00
H2       0.17006    0.16754    0.54482   1.00
H2       0.16477    0.22203    0.52707   1.00
H2       0.10714    0.13448    0.52584   1.00
H2       0.23987    0.41124    0.47222   1.00
H2       0.27636    0.47190    0.45278   1.00
H2       0.31177    0.42079    0.45894   1.00
H2       0.27350    0.55291    0.47799   1.00
H2       0.24995    0.49785    0.49888   1.00
H2       0.32438    0.57885    0.49975   1.00
H2       0.48208    0.57583    0.54420   1.00
H2       0.43466    0.48775    0.53956   1.00
H2       0.51324    0.53817    0.52696   1.00
H2       0.45610    0.63762    0.49416   1.00
H2       0.49511    0.66149    0.51808   1.00
H2       0.52544    0.62515    0.50015   1.00
H2       0.38401    0.37852    0.46698   1.00
H2       0.47054    0.40089    0.46938   1.00
H2       0.41621    0.37019    0.49041   1.00
H2       0.52180    0.51885    0.45825   1.00
H2       0.43979    0.50326    0.45152   1.00
H2       0.49403    0.57421    0.46678   1.00
C4       0.69362    0.82762    0.50146   1.00
C4       0.64212    0.80300    0.51681   1.00
C3       0.74059    0.80394    0.49899   1.00
C3       0.63642    0.75692    0.53232   1.00
C3       0.69964    0.87959    0.48794   1.00
C3       0.59315    0.82516    0.51679   1.00
C2       0.79847    0.88242    0.47069   1.00
C2       0.53744    0.75678    0.54758   1.00
C3       0.79183    0.83082    0.48410   1.00
C3       0.58515    0.73393    0.54718   1.00
C3       0.75086    0.90513    0.47278   1.00
C3       0.54371    0.80366    0.53240   1.00
H1       0.73881    0.76631    0.50788   1.00
H1       0.66959    0.73904    0.53337   1.00
C5       0.65427    0.90549    0.48959   1.00
C5       0.59408    0.86909    0.50132   1.00
H1       0.82466    0.81205    0.48313   1.00
H1       0.58315    0.70016    0.55792   1.00
H1       0.75336    0.94104    0.46283   1.00
H1       0.51179    0.82338    0.53292   1.00
O3       0.66716    0.96299    0.47888   1.00
O3       0.53989    0.88026    0.49866   1.00
Si1      0.70971    1.03791    0.48955   1.00
Si1      0.47500    0.82635    0.48503   1.00
C6       0.71892    1.08684    0.46769   1.00
C6       0.65526    1.04425    0.50743   1.00
C6       0.78976    1.05563    0.49912   1.00
C6       0.47592    0.75436    0.47504   1.00
C6       0.40590    0.79941    0.50176   1.00
C6       0.46474    0.87307    0.46535   1.00
C6       0.74338    1.06630    0.44805   1.00
H2       0.66637    1.07375    0.46461   1.00
C6       0.76096    1.16684    0.46833   1.00
H2       0.60498    1.00844    0.50136   1.00
C6       0.65560    1.02051    0.52969   1.00
C6       0.65659    1.11375    0.50955   1.00
H2       0.81076    1.04099    0.48642   1.00
C6       0.84297    1.13197    0.50387   1.00
C6       0.79303    1.01562    0.51817   1.00
C6       0.53709    0.76672    0.46117   1.00
C6       0.46225    0.69378    0.48944   1.00
H2       0.43149    0.73242    0.46506   1.00
H2       0.41393    0.76841    0.51287   1.00
C6       0.40335    0.85678    0.51433   1.00
C6       0.33275    0.75329    0.49291   1.00
H2       0.43726    0.89576    0.47248   1.00
C6       0.53133    0.93465    0.45683   1.00
C6       0.42131    0.83295    0.44644   1.00
H2       0.71012    1.01252    0.44434   1.00
H2       0.79525    1.07532    0.44981   1.00
H2       0.74273    1.09545    0.43491   1.00
H2       0.73861    1.18800    0.45796   1.00
H2       0.76227    1.18743    0.48332   1.00
H2       0.81372    1.18696    0.46348   1.00
H2       0.61054    1.01326    0.53795   1.00
H2       0.65430    0.97185    0.53023   1.00
H2       0.70041    1.05829    0.53797   1.00
H2       0.64659    1.13036    0.49506   1.00
H2       0.61698    1.10944    0.51996   1.00
H2       0.70562    1.15350    0.51542   1.00
H2       0.82143    1.15451    0.51399   1.00
H2       0.88908    1.13751    0.51104   1.00
H2       0.86050    1.16215    0.49008   1.00
H2       0.79233    1.04005    0.53237   1.00
H2       0.75155    0.96337    0.51888   1.00
H2       0.84033    1.01368    0.51796   1.00
H2       0.58105    0.77465    0.47004   1.00
H2       0.52286    0.72245    0.45146   1.00
H2       0.55311    0.81045    0.45121   1.00
H2       0.45492    0.64965    0.48064   1.00
H2       0.50450    0.70681    0.49976   1.00
H2       0.41603    0.67648    0.49842   1.00
H2       0.36599    0.83449    0.52659   1.00
H2       0.45251    0.89085    0.52142   1.00
H2       0.38920    0.88752    0.50498   1.00
H2       0.32914    0.71039    0.48434   1.00
H2       0.29525    0.73183    0.50517   1.00
H2       0.31772    0.78226    0.48304   1.00
H2       0.56486    0.91874    0.44990   1.00
H2       0.52031    0.96320    0.44557   1.00
H2       0.55930    0.96983    0.46903   1.00
H2       0.41007    0.86567    0.43692   1.00
H2       0.44823    0.81417    0.43706   1.00
H2       0.37241    0.78957    0.45085   1.00
C4       0.17240    0.86595    0.50144   1.00
C4       0.19704    0.83909    0.51679   1.00
C3       0.19691    0.93668    0.49873   1.00
C3       0.24403    0.87968    0.53209   1.00
C3       0.11957    0.81992    0.48816   1.00
C3       0.17392    0.76776    0.51699   1.00
C2       0.11756    0.91601    0.47068   1.00
C2       0.24324    0.78070    0.54759   1.00
C3       0.17002    0.96104    0.48386   1.00
C3       0.26701    0.85143    0.54696   1.00
C3       0.09401    0.84560    0.47300   1.00
C3       0.19545    0.73989    0.53262   1.00
H1       0.23519    0.97257    0.50745   1.00
H1       0.26262    0.93090    0.53297   1.00
C5       0.09281    0.74858    0.49004   1.00
C5       0.12902    0.72450    0.50174   1.00
H1       0.18942    1.01271    0.48271   1.00
H1       0.30146    0.88334    0.55754   1.00
H1       0.05744    0.81209    0.46322   1.00
H1       0.17509    0.68819    0.53331   1.00
O3       0.03462    0.70410    0.47958   1.00
O3       0.11679    0.65870    0.49926   1.00
Si1      -0.03976   0.67311    0.49051   1.00
Si1      0.16952    0.64621    0.48554   1.00
C6       -0.08984   0.63297    0.46888   1.00
C6       -0.04628   0.61267    0.50856   1.00
C6       -0.05595   0.73660    0.49997   1.00
C6       0.24167    0.71813    0.47519   1.00
C6       0.19627    0.60397    0.50230   1.00
C6       0.12145    0.58872    0.46611   1.00
C6       -0.06957   0.67719    0.44907   1.00
H2       -0.07762   0.59286    0.46586   1.00
C6       -0.16977   0.59602    0.46980   1.00
H2       -0.01124   0.59727    0.50243   1.00
C6       -0.02141   0.63747    0.53070   1.00
C6       -0.11621   0.54517    0.51101   1.00
H2       -0.04139   0.77177    0.48715   1.00
C6       -0.13184   0.71471    0.50497   1.00
C6       -0.01477   0.78036    0.51882   1.00
C6       0.22961    0.76695    0.46124   1.00
C6       0.30310    0.76502    0.48933   1.00
H2       0.26266    0.69471    0.46522   1.00
H2       0.22810    0.64326    0.51324   1.00
C6       0.13894    0.54501    0.51515   1.00
C6       0.24121    0.57562    0.49340   1.00
H2       0.09845    0.53882    0.47342   1.00
C6       0.06010    0.59441    0.45773   1.00
C6       0.16041    0.58398    0.44711   1.00
H2       -0.01605   0.69686    0.44518   1.00
H2       -0.07776   0.72059    0.45076   1.00
H2       -0.09950   0.64709    0.43608   1.00
H2       -0.19188   0.55209    0.45959   1.00
H2       -0.18987   0.57753    0.48489   1.00
H2       -0.18940   0.62904    0.46492   1.00
H2       -0.01448   0.59960    0.53903   1.00
H2       0.02762    0.68445    0.53100   1.00
H2       -0.05843   0.64551    0.53905   1.00
H2       -0.13371   0.51803    0.49662   1.00
H2       -0.11206   0.50995    0.52149   1.00
H2       -0.15524   0.55540    0.51695   1.00
H2       -0.15447   0.67107    0.51525   1.00
H2       -0.13639   0.75599    0.51205   1.00
H2       -0.16255   0.70189    0.49129   1.00
H2       -0.03882   0.75601    0.53314   1.00
H2       0.03725    0.79042    0.51938   1.00
H2       -0.01208   0.82996    0.51849   1.00
H2       0.22269    0.80375    0.47004   1.00
H2       0.27359    0.79611    0.45134   1.00
H2       0.18538    0.73932    0.45145   1.00
H2       0.34709    0.80105    0.48034   1.00
H2       0.29108    0.79510    0.49961   1.00
H2       0.32017    0.73596    0.49834   1.00
H2       0.16131    0.52997    0.52739   1.00
H2       0.10568    0.56106    0.52229   1.00
H2       0.10734    0.49988    0.50598   1.00
H2       0.28404    0.61419    0.48463   1.00
H2       0.26276    0.55962    0.50564   1.00
H2       0.21136    0.53134    0.48370   1.00
H2       0.07638    0.64370    0.45064   1.00
H2       0.03068    0.55453    0.44663   1.00
H2       0.02560    0.58821    0.47003   1.00
H2       0.12686    0.53981    0.43778   1.00
H2       0.17937    0.62935    0.43758   1.00
H2       0.20353    0.57790    0.45143   1.00
C4       0.30574    0.14286    0.99837   1.00
C4       0.35863    0.16905    0.98344   1.00
C3       0.29765    0.18418    1.01305   1.00
C3       0.41224    0.23798    0.98286   1.00
C3       0.25863    0.07129    0.99901   1.00
C3       0.35839    0.12438    0.96813   1.00
C2       0.19951    0.08558    1.02871   1.00
C2       0.46458    0.21771    0.95302   1.00
C3       0.24626    0.15634    1.02787   1.00
C3       0.46342    0.26183    0.96796   1.00
C3       0.20635    0.04435    1.01385   1.00
C3       0.41204    0.14874    0.95378   1.00
H1       0.32871    0.23575    1.01335   1.00
H1       0.41594    0.27279    0.99331   1.00
C5       0.26385    0.02712    0.98477   1.00
C5       0.30506    0.05554    0.96729   1.00
H1       0.24320    0.18867    1.03818   1.00
H1       0.50058    0.31233    0.96818   1.00
H1       0.17178    -0.00683   1.01377   1.00
H1       0.41352    0.11513    0.94372   1.00
O3       0.22596    -0.04245   0.98748   1.00
O3       0.29635    0.01543    0.95050   1.00
Si1      0.25901    -0.08212   0.99950   1.00
Si1      0.25296    0.01896    0.93124   1.00
C6       0.18397    -0.16249   1.00095   1.00
C6       0.31948    -0.08462   0.98322   1.00
C6       0.28973    -0.04857   1.02389   1.00
C6       0.22161    0.07640    0.93246   1.00
C6       0.31075    0.04173    0.91101   1.00
C6       0.18550    -0.06451   0.92684   1.00
C6       0.11834    -0.16198   1.00827   1.00
H2       0.17460    -0.17793   0.98505   1.00
C6       0.18318    -0.22356   1.01248   1.00
H2       0.30074    -0.08077   0.96831   1.00
C6       0.39501    -0.02482   0.98428   1.00
C6       0.32442    -0.15111   0.98253   1.00
H2       0.24730    -0.04451   1.03022   1.00
C6       0.30276    -0.09430   1.03899   1.00
C6       0.35494    0.02392    1.02603   1.00
C6       0.17399    0.06941    0.95058   1.00
C6       0.27203    0.15466    0.92965   1.00
H2       0.18927    0.06261    0.91901   1.00
H2       0.34896    0.09455    0.91425   1.00
C6       0.35121    0.00248    0.90959   1.00
C6       0.28323    0.04124    0.88922   1.00
H2       0.20906    -0.08855   0.91825   1.00
C6       0.15425    -0.11042   0.94593   1.00
C6       0.12370    -0.07369   0.91377   1.00
H2       0.10792    -0.12842   0.99891   1.00
H2       0.12343    -0.14483   1.02400   1.00
H2       0.07332    -0.21282   1.00726   1.00
H2       0.14792    -0.27170   1.00504   1.00
H2       0.23288    -0.21990   1.01291   1.00
H2       0.16567    -0.22784   1.02813   1.00
H2       0.42345    -0.02467   0.97085   1.00
H2       0.39833    0.02479    0.98470   1.00
H2       0.42116    -0.02962   0.99754   1.00
H2       0.27533    -0.19563   0.97884   1.00
H2       0.35995    -0.14804   0.97077   1.00
H2       0.34236    -0.15985   0.99698   1.00
H2       0.33630    -0.11072   1.03229   1.00
H2       0.32615    -0.06760   1.05315   1.00
H2       0.25531    -0.13900   1.04349   1.00
H2       0.40189    0.02152    1.02576   1.00
H2       0.35942    0.05928    1.01425   1.00
H2       0.35379    0.04697    1.04050   1.00
H2       0.20306    0.09543    0.96410   1.00
H2       0.14288    0.09232    0.94673   1.00
H2       0.13898    0.01639    0.95450   1.00
H2       0.24393    0.18204    0.92793   1.00
H2       0.30584    0.17706    0.94260   1.00
H2       0.30323    0.16563    0.91606   1.00
H2       0.39350    0.02777    0.89886   1.00
H2       0.37346    0.00153    0.92421   1.00
H2       0.31900    -0.05004   0.90453   1.00
H2       0.25581    0.06942    0.88861   1.00
H2       0.32549    0.06562    0.87843   1.00
H2       0.24933    -0.01071   0.88390   1.00
H2       0.13109    -0.09019   0.95626   1.00
H2       0.11564    -0.16236   0.94181   1.00
H2       0.19384    -0.11394   0.95419   1.00
H2       0.09082    -0.12717   0.90956   1.00
H2       0.09248    -0.05745   0.92206   1.00
H2       0.14040    -0.04478   0.89967   1.00
C4       0.82798    0.69435    0.99832   1.00
C4       0.80346    0.64273    0.98300   1.00
C3       0.81330    0.74840    0.99865   1.00
C3       0.76711    0.64348    0.96554   1.00
C3       0.87047    0.69295    1.01408   1.00
C3       0.81546    0.58686    0.98511   1.00
C2       0.88231    0.79869    1.02924   1.00
C2       0.75689    0.53722    0.95249   1.00
C3       0.84000    0.79937    1.01361   1.00
C3       0.74390    0.59187    0.95079   1.00
C3       0.89586    0.74413    1.02925   1.00
C3       0.79419    0.53693    0.96965   1.00
H1       0.78259    0.75219    0.98807   1.00
H1       0.75680    0.68176    0.96296   1.00
C5       0.88709    0.64029    1.01464   1.00
C5       0.84911    0.58134    1.00252   1.00
H1       0.82804    0.83748    1.01300   1.00
H1       0.71737    0.59476    0.93857   1.00
H1       0.92471    0.74140    1.04078   1.00
H1       0.80698    0.49967    0.97075   1.00
O3       0.93681    0.64529    1.02774   1.00
O3       0.84931    0.52169    1.00682   1.00
Si1      1.01550    0.67866    1.01990   1.00
Si1      0.78475    0.46118    1.01906   1.00
C6       1.05248    0.68139    1.04371   1.00
C6       1.01941    0.61893    1.00363   1.00
C6       1.04829    0.76122    1.00962   1.00
C6       0.71605    0.47382    1.02547   1.00
C6       0.75582    0.39106    1.00264   1.00
C6       0.81744    0.44338    1.04101   1.00
C6       1.03019    0.71135    1.06166   1.00
H2       1.03091    0.62734    1.04722   1.00
C6       1.13171    0.71370    1.04605   1.00
H2       0.97654    0.57098    1.00897   1.00
C6       1.00685    0.62242    0.98044   1.00
C6       1.08313    0.60931    1.00486   1.00
H2       1.03349    0.78635    1.02105   1.00
C6       1.12766    0.80594    1.00748   1.00
C6       1.02026    0.77050    0.98876   1.00
C6       0.73168    0.53767    1.03852   1.00
C6       0.66490    0.46836    1.00858   1.00
H2       0.68510    0.43005    1.03521   1.00
H2       0.73357    0.40424    0.98998   1.00
C6       0.81209    0.37892    0.99301   1.00
C6       0.69884    0.32036    1.01070   1.00
H2       0.83624    0.41020    1.03561   1.00
C6       0.88044    0.50510    1.05102   1.00
C6       0.76673    0.40379    1.05870   1.00
H2       0.97482    0.68438    1.06343   1.00
H2       1.04746    0.76535    1.05927   1.00
H2       1.05118    0.70641    1.07608   1.00
H2       1.14305    0.68675    1.05780   1.00
H2       1.15641    0.71143    1.03218   1.00
H2       1.15652    0.76709    1.05073   1.00
H2       0.99624    0.57515    0.97286   1.00
H2       0.96298    0.62871    0.97760   1.00
H2       1.05148    0.66416    0.97313   1.00
H2       1.09075    0.59640    1.02021   1.00
H2       1.07690    0.56734    0.99517   1.00
H2       1.12927    0.65531    0.99994   1.00
H2       1.14846    0.77906    0.99899   1.00
H2       1.14298    0.85418    0.99970   1.00
H2       1.15227    0.82031    1.02222   1.00
H2       1.04778    0.76551    0.97590   1.00
H2       0.96668    0.73438    0.98640   1.00
H2       1.02613    0.82142    0.98789   1.00
H2       0.74949    0.58319    1.02921   1.00
H2       0.68562    0.52972    1.04630   1.00
H2       0.76978    0.54818    1.05016   1.00
H2       0.62044    0.46775    1.01531   1.00
H2       0.68759    0.51121    0.99811   1.00
H2       0.64532    0.42142    0.99981   1.00
H2       0.79076    0.34215    0.98057   1.00
H2       0.85362    0.42593    0.98661   1.00
H2       0.83382    0.35919    1.00404   1.00
H2       0.65618    0.32351    1.01720   1.00
H2       0.67822    0.28331    0.99831   1.00
H2       0.71861    0.29998    1.02218   1.00
H2       0.86881    0.54367    1.05643   1.00
H2       0.89993    0.48912    1.06378   1.00
H2       0.92153    0.52912    1.04006   1.00
H2       0.79064    0.38686    1.06994   1.00
H2       0.75047    0.43581    1.06652   1.00
H2       0.72140    0.35822    1.05326   1.00
C4       0.86594    0.17241    0.99857   1.00
C4       0.83909    0.19704    0.98321   1.00
C3       0.93668    0.19709    1.00132   1.00
C3       0.87972    0.24423    0.96795   1.00
C3       0.81990    0.11939    1.01180   1.00
C3       0.76772    0.17374    0.98296   1.00
C2       0.91601    0.11756    1.02932   1.00
C2       0.78070    0.24324    0.95241   1.00
C3       0.96105    0.17019    1.01619   1.00
C3       0.85147    0.26720    0.95309   1.00
C3       0.84557    0.09383    1.02695   1.00
C3       0.73986    0.19527    0.96734   1.00
H1       0.97258    0.23549    0.99264   1.00
H1       0.93096    0.26297    0.96711   1.00
C5       0.74854    0.09246    1.00987   1.00
C5       0.72440    0.12864    0.99817   1.00
H1       1.01273    0.18972    1.01737   1.00
H1       0.88341    0.30179    0.94254   1.00
H1       0.81205    0.05713    1.03670   1.00
H1       0.68815    0.17478    0.96661   1.00
O3       0.70409    0.03413    1.02027   1.00
O3       0.65851    0.11619    1.00061   1.00
Si1      0.67339    -0.04014   1.00929   1.00
Si1      0.64571    0.16867    1.01436   1.00
C6       0.63317    -0.09045   1.03088   1.00
C6       0.61303    -0.04668   0.99121   1.00
C6       0.73712    -0.05601   0.99985   1.00
C6       0.71742    0.24085    1.02478   1.00
C6       0.60346    0.19538    0.99759   1.00
C6       0.58813    0.12032    1.03373   1.00
C6       0.67723    -0.07024   1.05072   1.00
H2       0.59292    -0.07840   1.03388   1.00
C6       0.59643    -0.17036   1.02989   1.00
H2       0.59743    -0.01181   0.99734   1.00
C6       0.63798    -0.02159   0.96909   1.00
C6       0.54567    -0.11670   0.98869   1.00
H2       0.77219    -0.04146   1.01269   1.00
C6       0.71549    -0.13180   0.99480   1.00
C6       0.78098    -0.01459   0.98105   1.00
C6       0.76625    0.22885    1.03875   1.00
C6       0.76431    0.30245    1.01069   1.00
H2       0.69381    0.26164    1.03475   1.00
H2       0.64280    0.22738    0.98668   1.00
C6       0.54470    0.13806    0.98468   1.00
C6       0.57484    0.24007    1.00650   1.00
H2       0.53828    0.09726    1.02639   1.00
C6       0.59395    0.05902    1.04208   1.00
C6       0.58308    0.15903    1.05275   1.00
H2       0.69672    -0.01678   1.05464   1.00
H2       0.72074    -0.07825   1.04905   1.00
H2       0.64706    -0.10033   1.06367   1.00
H2       0.55241    -0.19266   1.04007   1.00
H2       0.57810    -0.19036   1.01479   1.00
H2       0.62953    -0.18989   1.03478   1.00
H2       0.60009    -0.01472   0.96075   1.00
H2       0.68487    0.02753    0.96884   1.00
H2       0.64622    -0.05844   0.96072   1.00
H2       0.51842    -0.13438   1.00305   1.00
H2       0.51047    -0.11259   0.97819   1.00
H2       0.55610    -0.15559   0.98273   1.00
H2       0.67193    -0.15445   0.98449   1.00
H2       0.75691    -0.13614   0.98774   1.00
H2       0.70263    -0.16262   1.00847   1.00
H2       0.75679    -0.03855   0.96671   1.00
H2       0.79088    0.03739    0.98052   1.00
H2       0.83064    -0.01174   0.98141   1.00
H2       0.80321    0.22214    1.02996   1.00
H2       0.79523    0.27276    1.04868   1.00
H2       0.73863    0.18451    1.04850   1.00
H2       0.80018    0.34641    1.01973   1.00
H2       0.79457    0.29064    1.00042   1.00
H2       0.73523    0.31948    1.00168   1.00
H2       0.52966    0.16045    0.97244   1.00
H2       0.56095    0.10497    0.97753   1.00
H2       0.49952    0.10628    0.99381   1.00
H2       0.61325    0.28288    1.01531   1.00
H2       0.55885    0.26164    0.99426   1.00
H2       0.53050    0.21005    1.01615   1.00
H2       0.64321    0.07537    1.04920   1.00
H2       0.55401    0.02942    1.05315   1.00
H2       0.58796    0.02466    1.02976   1.00
H2       0.53887    0.12531    1.06204   1.00
H2       0.62838    0.17804    1.06231   1.00
H2       0.57688    0.20211    1.04845   1.00
C4       0.52558    1.02374    0.83287   1.00
C4       0.49875    0.97226    0.81751   1.00
C3       0.48877    1.02199    0.85051   1.00
C3       0.43044    0.91728    0.81734   1.00
C3       0.59253    1.08094    0.83046   1.00
C3       0.54216    0.97522    0.80137   1.00
C2       0.58214    1.13154    0.86273   1.00
C2       0.44791    0.87103    0.78566   1.00
C3       0.51607    1.07456    0.86498   1.00
C3       0.40586    0.86769    0.80196   1.00
C3       0.61964    1.13281    0.84542   1.00
C3       0.51559    0.92640    0.78557   1.00
H1       0.44113    0.98235    0.85340   1.00
H1       0.39641    0.91188    0.82830   1.00
C5       0.63206    1.08580    0.81317   1.00
C5       0.61164    1.02715    0.80096   1.00
H1       0.48688    1.07076    0.87736   1.00
H1       0.35617    0.82875    0.80271   1.00
H1       0.66844    1.17258    0.84377   1.00
H1       0.54608    0.93172    0.77346   1.00
O3       0.69148    1.14586    0.80920   1.00
O3       0.65748    1.02337    0.78794   1.00
Si1      0.69007    1.20245    0.79416   1.00
Si1      0.69375    0.97990    0.79489   1.00
C6       0.77475    1.26806    0.79846   1.00
C6       0.67939    1.17072    0.76921   1.00
C6       0.63098    1.22745    0.80173   1.00
C6       0.67029    0.93713    0.81849   1.00
C6       0.67194    0.92003    0.77529   1.00
C6       0.78255    1.03574    0.79400   1.00
C6       0.79770    1.28252    0.82122   1.00
H2       0.80424    1.24677    0.79181   1.00
C6       0.80313    1.34018    0.78846   1.00
H2       0.69990    1.13630    0.77034   1.00
C6       0.60523    1.12652    0.76081   1.00
C6       0.72034    1.22152    0.75169   1.00
H2       0.64188    1.23723    0.81792   1.00
C6       0.63972    1.29511    0.79248   1.00
C6       0.55242    1.17547    0.79987   1.00
C6       0.67934    0.98027    0.83796   1.00
C6       0.59962    0.87015    0.82067   1.00
H2       0.70697    0.91953    0.82011   1.00
H2       0.61738    0.88563    0.77739   1.00
C6       0.67974    0.94818    0.75317   1.00
C6       0.70591    0.87453    0.77554   1.00
H2       0.79531    1.03679    0.77798   1.00
C6       0.80802    1.11160    0.79963   1.00
C6       0.82952    1.01510    0.80581   1.00
H2       0.79002    1.23648    0.82891   1.00
H2       0.76926    1.30207    0.82951   1.00
H2       0.85199    1.32000    0.82248   1.00
H2       0.85737    1.36214    0.78504   1.00
H2       0.77743    1.33858    0.77438   1.00
H2       0.79891    1.37622    0.79851   1.00
H2       0.60491    1.09846    0.74726   1.00
H2       0.57154    1.08847    0.77171   1.00
H2       0.58349    1.15828    0.75659   1.00
H2       0.77504    1.24838    0.75471   1.00
H2       0.71326    1.19471    0.73730   1.00
H2       0.70375    1.25882    0.74947   1.00
H2       0.64118    1.29421    0.77593   1.00
H2       0.59822    1.30401    0.79690   1.00
H2       0.68591    1.33932    0.79796   1.00
H2       0.53253    1.17715    0.78494   1.00
H2       0.53904    1.12305    0.80257   1.00
H2       0.52429    1.18770    0.81100   1.00
H2       0.63627    0.98837    0.84025   1.00
H2       0.68274    0.95396    0.85143   1.00
H2       0.72567    1.02986    0.83748   1.00
H2       0.59673    0.84483    0.83507   1.00
H2       0.55724    0.87994    0.82046   1.00
H2       0.59126    0.83326    0.80879   1.00
H2       0.65434    0.90614    0.74236   1.00
H2       0.65603    0.97975    0.75155   1.00
H2       0.73310    0.97857    0.74865   1.00
H2       0.70111    0.85093    0.79033   1.00
H2       0.68115    0.83308    0.76451   1.00
H2       0.75991    0.90394    0.77157   1.00
H2       0.79584    1.11719    0.81526   1.00
H2       0.86305    1.14347    0.79754   1.00
H2       0.78406    1.13198    0.78979   1.00
H2       0.88298    1.04803    0.80158   1.00
H2       0.82557    1.01951    0.82220   1.00
H2       0.81686    0.96296    0.80241   1.00
C4       -0.02394   0.50089    0.83281   1.00
C4       0.02745    0.52568    0.81743   1.00
C3       -0.02829   0.45629    0.84861   1.00
C3       0.07575    0.50353    0.81523   1.00
C3       -0.07473   0.52064    0.83233   1.00
C3       0.03145    0.57555    0.80339   1.00
C2       -0.13143   0.45032    0.86276   1.00
C2       0.12886    0.57714    0.78563   1.00
C3       -0.08075   0.43137    0.86311   1.00
C3       0.12547    0.52900    0.79989   1.00
C3       -0.12649   0.49595    0.84732   1.00
C3       0.08007    0.59838    0.78752   1.00
H1       0.00667    0.44078    0.85009   1.00
H1       0.07596    0.46794    0.82463   1.00
C5       -0.07331   0.56514    0.81694   1.00
C5       -0.01338   0.60196    0.80513   1.00
H1       -0.08157   0.39885    0.87410   1.00
H1       0.15944    0.51156    0.79915   1.00
H1       -0.16146   0.51206    0.84712   1.00
H1       0.07945    0.63077    0.77683   1.00
O3       -0.12823   0.57497    0.81451   1.00
O3       -0.00193   0.65924    0.79443   1.00
Si1      -0.18831   0.52813    0.79836   1.00
Si1      0.04974    0.73434    0.80392   1.00
C6       -0.24561   0.55623    0.80517   1.00
C6       -0.15521   0.55598    0.77380   1.00
C6       -0.22425   0.43974    0.80258   1.00
C6       0.09100    0.73876    0.82710   1.00
C6       0.11101    0.77383    0.78474   1.00
C6       0.00368    0.77783    0.80599   1.00
C6       -0.25835   0.55799    0.82849   1.00
H2       -0.21817   0.60955    0.80040   1.00
C6       -0.31792   0.52471    0.79507   1.00
H2       -0.11539   0.60855    0.77660   1.00
C6       -0.11902   0.52121    0.76296   1.00
C6       -0.20259   0.56024    0.75728   1.00
H2       -0.23359   0.43571    0.81892   1.00
C6       -0.29481   0.39119    0.79240   1.00
C6       -0.18066   0.40470    0.79818   1.00
C6       0.04565    0.70106    0.84591   1.00
C6       0.15166    0.72407    0.82739   1.00
H2       0.11531    0.79293    0.83078   1.00
H2       0.13935    0.74655    0.78500   1.00
C6       0.08292    0.76554    0.76259   1.00
C6       0.16472    0.85108    0.78751   1.00
H2       0.00506    0.79695    0.79069   1.00
C6       -0.07360   0.73339    0.81116   1.00
C6       0.03244    0.84146    0.82031   1.00
H2       -0.21064   0.58863    0.83671   1.00
H2       -0.28382   0.50670    0.83497   1.00
H2       -0.29013   0.58080    0.83148   1.00
H2       -0.33299   0.56350    0.79374   1.00
H2       -0.31963   0.50476    0.77996   1.00
H2       -0.35738   0.48330    0.80408   1.00
H2       -0.08864   0.55198    0.75011   1.00
H2       -0.08392   0.51571    0.77299   1.00
H2       -0.15608   0.47101    0.75710   1.00
H2       -0.22305   0.59242    0.76225   1.00
H2       -0.17455   0.58308    0.74326   1.00
H2       -0.24485   0.50964    0.75353   1.00
H2       -0.29305   0.40035    0.77609   1.00
H2       -0.31077   0.33736    0.79467   1.00
H2       -0.33516   0.39756    0.79906   1.00
H2       -0.18496   0.38827    0.78242   1.00
H2       -0.12683   0.43717    0.80133   1.00
H2       -0.19838   0.35924    0.80764   1.00
H2       0.03038    0.64718    0.84601   1.00
H2       0.07378    0.72307    0.85997   1.00
H2       -0.00021   0.70513    0.84655   1.00
H2       0.17774    0.73815    0.84205   1.00
H2       0.13478    0.67041    0.82500   1.00
H2       0.19018    0.75370    0.81600   1.00
H2       0.12430    0.78138    0.75159   1.00
H2       0.04567    0.71238    0.75922   1.00
H2       0.05875    0.79617    0.75996   1.00
H2       0.18866    0.86142    0.80244   1.00
H2       0.20558    0.86716    0.77631   1.00
H2       0.14169    0.88308    0.78548   1.00
H2       -0.08197   0.70899    0.82596   1.00
H2       -0.09918   0.76346    0.81098   1.00
H2       -0.09866   0.69353    0.79987   1.00
H2       0.00557    0.86978    0.81792   1.00
H2       0.02656    0.82653    0.83627   1.00
H2       0.08628    0.87693    0.81744   1.00
C4       0.49909    0.47514    0.83281   1.00
C4       0.47430    0.50175    0.81743   1.00
C3       0.54347    0.51534    0.84866   1.00
C3       0.49626    0.57217    0.81528   1.00
C3       0.47956    0.40467    0.83229   1.00
C3       0.42464    0.45592    0.80334   1.00
C2       0.54967    0.41823    0.86276   1.00
C2       0.42287    0.55172    0.78563   1.00
C3       0.56840    0.48780    0.86316   1.00
C3       0.47080    0.59644    0.79995   1.00
C3       0.50425    0.37759    0.84728   1.00
C3       0.40183    0.48173    0.78747   1.00
H1       0.55881    0.56575    0.85018   1.00
H1       0.53169    0.60795    0.82472   1.00
C5       0.43528    0.36165    0.81685   1.00
C5       0.39843    0.38469    0.80502   1.00
H1       0.60076    0.51946    0.87419   1.00
H1       0.48809    0.64782    0.79924   1.00
H1       0.48831    0.32656    0.84704   1.00
H1       0.36960    0.44875    0.77674   1.00
O3       0.42570    0.29701    0.81437   1.00
O3       0.34131    0.33884    0.79427   1.00
Si1      0.47282    0.28410    0.79824   1.00
Si1      0.26607    0.31508    0.80370   1.00
C6       0.44492    0.19869    0.80499   1.00
C6       0.44514    0.28948    0.77367   1.00
C6       0.56114    0.33675    0.80254   1.00
C6       0.26129    0.35162    0.82690   1.00
C6       0.22661    0.33686    0.78451   1.00
C6       0.22281    0.22553    0.80570   1.00
C6       0.44299    0.18400    0.82830   1.00
H2       0.39164    0.17271    0.80018   1.00
C6       0.47674    0.15820    0.79489   1.00
H2       0.39249    0.27653    0.77643   1.00
C6       0.47982    0.36054    0.76289   1.00
C6       0.44121    0.23807    0.75712   1.00
H2       0.56504    0.33130    0.81888   1.00
C6       0.60996    0.31505    0.79238   1.00
C6       0.59600    0.41540    0.79821   1.00
C6       0.29891    0.34395    0.84573   1.00
C6       0.27573    0.42689    0.82724   1.00
H2       0.20709    0.32158    0.83054   1.00
H2       0.25373    0.39248    0.78482   1.00
C6       0.23519    0.31733    0.76236   1.00
C6       0.14928    0.31306    0.78723   1.00
H2       0.20386    0.20788    0.79038   1.00
C6       0.26740    0.19285    0.81088   1.00
C6       0.15906    0.19035    0.81996   1.00
H2       0.41215    0.20085    0.83651   1.00
H2       0.49422    0.20990    0.83483   1.00
H2       0.42031    0.12940    0.83125   1.00
H2       0.43809    0.10430    0.79351   1.00
H2       0.49681    0.17662    0.77979   1.00
H2       0.51813    0.16021    0.80392   1.00
H2       0.44911    0.36016    0.75002   1.00
H2       0.48508    0.40099    0.77295   1.00
H2       0.53011    0.37389    0.75707   1.00
H2       0.40911    0.18536    0.76204   1.00
H2       0.41844    0.24331    0.74309   1.00
H2       0.49191    0.24662    0.75341   1.00
H2       0.60096    0.30777    0.77606   1.00
H2       0.66372    0.35302    0.79469   1.00
H2       0.60368    0.26833    0.79901   1.00
H2       0.61257    0.42772    0.78246   1.00
H2       0.56337    0.43657    0.80134   1.00
H2       0.64136    0.44317    0.80771   1.00
H2       0.35275    0.38269    0.84588   1.00
H2       0.27670    0.34985    0.85978   1.00
H2       0.29500    0.29409    0.84633   1.00
H2       0.26144    0.43868    0.84190   1.00
H2       0.32938    0.46382    0.82490   1.00
H2       0.24612    0.43576    0.81584   1.00
H2       0.21934    0.34287    0.75136   1.00
H2       0.28843    0.33345    0.75903   1.00
H2       0.20473    0.26254    0.75968   1.00
H2       0.13873    0.32647    0.80216   1.00
H2       0.13319    0.33784    0.77603   1.00
H2       0.11744    0.25803    0.78515   1.00
H2       0.29164    0.20880    0.82570   1.00
H2       0.23748    0.13720    0.81065   1.00
H2       0.30738    0.20788    0.79962   1.00
H2       0.13091    0.13519    0.81752   1.00
H2       0.17383    0.19929    0.83594   1.00
H2       0.12348    0.20859    0.81708   1.00
C4       0.36225    0.19990    0.33539   1.00
C4       0.30920    0.17257    0.35027   1.00
C3       0.38497    0.26342    0.32553   1.00
C3       0.26944    0.20292    0.35541   1.00
C3       0.39402    0.16153    0.32971   1.00
C3       0.29469    0.11158    0.36073   1.00
C2       0.46748    0.25007    0.30473   1.00
C2       0.20177    0.11330    0.38020   1.00
C3       0.43585    0.28767    0.31054   1.00
C3       0.21763    0.17449    0.37010   1.00
C3       0.44615    0.18749    0.31482   1.00
C3       0.24034    0.08219    0.37485   1.00
H1       0.36538    0.29403    0.32900   1.00
H1       0.27666    0.24634    0.34855   1.00
C5       0.37371    0.09764    0.33898   1.00
C5       0.33399    0.07987    0.35695   1.00
H1       0.44986    0.33374    0.30383   1.00
H1       0.19093    0.19899    0.37332   1.00
H1       0.46979    0.16029    0.31131   1.00
H1       0.22776    0.03625    0.38126   1.00
O3       0.39606    0.05581    0.33116   1.00
O3       0.33004    0.02930    0.36958   1.00
Si1      0.34929    -0.00285   0.31463   1.00
Si1      0.37698    0.05123    0.39001   1.00
C6       0.40967    -0.02751   0.30835   1.00
C6       0.27934    -0.06820   0.32779   1.00
C6       0.32777    0.02960    0.29327   1.00
C6       0.42861    0.13905    0.39546   1.00
C6       0.31686    0.01171    0.40948   1.00
C6       0.42733    0.01208    0.38878   1.00
C6       0.48368    0.03208    0.30380   1.00
H2       0.41370    -0.05032   0.32250   1.00
C6       0.39428    -0.08236   0.29151   1.00
H2       0.29949    -0.06194   0.34317   1.00
C6       0.21277    -0.06380   0.32968   1.00
C6       0.25454    -0.14405   0.32195   1.00
H2       0.37690    0.07352    0.28914   1.00
C6       0.30188    -0.01681   0.27394   1.00
C6       0.27648    0.05683    0.29571   1.00
C6       0.48174    0.18550    0.37914   1.00
C6       0.39483    0.18004    0.40374   1.00
H2       0.45896    0.13858    0.40825   1.00
H2       0.29004    0.04048    0.40998   1.00
C6       0.26034    -0.06409   0.40561   1.00
C6       0.34469    0.01438    0.43137   1.00
H2       0.39314    -0.04006   0.39387   1.00
C6       0.45111    0.00449    0.36723   1.00
C6       0.49182    0.04053    0.40274   1.00
H2       0.50385    0.06832    0.31636   1.00
H2       0.48489    0.06002    0.29014   1.00
H2       0.51892    0.01284    0.30159   1.00
H2       0.41867    -0.11212   0.29537   1.00
H2       0.34012    -0.11797   0.28961   1.00
H2       0.41441    -0.05932   0.27672   1.00
H2       0.17956    -0.09812   0.34154   1.00
H2       0.22348    -0.01291   0.33387   1.00
H2       0.18391    -0.07845   0.31553   1.00
H2       0.29581    -0.15557   0.32307   1.00
H2       0.21449    -0.17948   0.33223   1.00
H2       0.23380    -0.15530   0.30658   1.00
H2       0.25902    -0.06715   0.27757   1.00
H2       0.28531    0.00532    0.26202   1.00
H2       0.34228    -0.02272   0.26711   1.00
H2       0.22354    0.01633    0.29400   1.00
H2       0.28030    0.08093    0.31022   1.00
H2       0.28617    0.09501    0.28405   1.00
H2       0.45857    0.20178    0.36757   1.00
H2       0.52249    0.23171    0.38617   1.00
H2       0.50581    0.16016    0.37163   1.00
H2       0.43379    0.23047    0.40904   1.00
H2       0.36528    0.18814    0.39220   1.00
H2       0.36166    0.15496    0.41669   1.00
H2       0.21933    -0.08024   0.41676   1.00
H2       0.23709    -0.07031   0.39066   1.00
H2       0.28037    -0.09893   0.40666   1.00
H2       0.38325    0.06609    0.43564   1.00
H2       0.30344    -0.00275   0.44248   1.00
H2       0.36671    -0.01871   0.43278   1.00
H2       0.48397    0.05373    0.36010   1.00
H2       0.47854    -0.02376   0.36767   1.00
H2       0.40707    -0.02391   0.35751   1.00
H2       0.51242    0.00594    0.40291   1.00
H2       0.53224    0.09020    0.39747   1.00
H2       0.47991    0.04589    0.41841   1.00
C4       0.83342    0.63567    0.33601   1.00
C4       0.86006    0.68862    0.35092   1.00
C3       0.84132    0.57735    0.33696   1.00
C3       0.90243    0.69166    0.36724   1.00
C3       0.79769    0.64132    0.31896   1.00
C3       0.84365    0.74172    0.34965   1.00
C2       0.78098    0.53251    0.30473   1.00
C2       0.91316    0.79824    0.38020   1.00
C3       0.81618    0.52736    0.32171   1.00
C3       0.92775    0.74459    0.38159   1.00
C3       0.77161    0.58970    0.30392   1.00
C3       0.87206    0.79613    0.36376   1.00
H1       0.86536    0.56936    0.34881   1.00
H1       0.91650    0.65574    0.36911   1.00
C5       0.78800    0.69834    0.31709   1.00
C5       0.79953    0.74065    0.33423   1.00
H1       0.82385    0.48655    0.32314   1.00
H1       0.95768    0.74383    0.39317   1.00
H1       0.74445    0.59349    0.29207   1.00
H1       0.86338    0.83598    0.36188   1.00
O3       0.76383    0.70940    0.29915   1.00
O3       0.77232    0.78331    0.33504   1.00
Si1      0.81742    0.75922    0.28192   1.00
Si1      0.70296    0.75960    0.34818   1.00
C6       0.75704    0.74178    0.26255   1.00
C6       0.85294    0.84376    0.29072   1.00
C6       0.87733    0.73496    0.27464   1.00
C6       0.66753    0.68148    0.36151   1.00
C6       0.72724    0.82679    0.36549   1.00
C6       0.64199    0.75962    0.33159   1.00
C6       0.70415    0.66454    0.25885   1.00
H2       0.72746    0.76366    0.26873   1.00
C6       0.77998    0.77372    0.24084   1.00
H2       0.81340    0.83988    0.30100   1.00
C6       0.91984    0.87443    0.30361   1.00
C6       0.86481    0.90090    0.27517   1.00
H2       0.84494    0.68016    0.27215   1.00
C6       0.91674    0.76494    0.25426   1.00
C6       0.93427    0.74386    0.29001   1.00
C6       0.64813    0.61525    0.34917   1.00
C6       0.70256    0.67679    0.38146   1.00
H2       0.61910    0.67533    0.36681   1.00
H2       0.76216    0.82158    0.37575   1.00
C6       0.76896    0.90056    0.35654   1.00
C6       0.67007    0.82571    0.37906   1.00
H2       0.65547    0.81309    0.33088   1.00
C6       0.64446    0.73907    0.30917   1.00
C6       0.56519    0.71902    0.33807   1.00
H2       0.67684    0.63951    0.27275   1.00
H2       0.72916    0.63713    0.25323   1.00
H2       0.66559    0.65842    0.24776   1.00
H2       0.74142    0.78356    0.23425   1.00
H2       0.82798    0.82171    0.24094   1.00
H2       0.78574    0.73956    0.23037   1.00
H2       0.92824    0.92031    0.31162   1.00
H2       0.91760    0.83914    0.31520   1.00
H2       0.96431    0.88873    0.29403   1.00
H2       0.81778    0.88903    0.26728   1.00
H2       0.88203    0.94979    0.28277   1.00
H2       0.90355    0.90829    0.26400   1.00
H2       0.94156    0.82052    0.25411   1.00
H2       0.95599    0.75102    0.25170   1.00
H2       0.88287    0.74476    0.24128   1.00
H2       0.97938    0.79453    0.28912   1.00
H2       0.91766    0.73584    0.30568   1.00
H2       0.95078    0.70702    0.28664   1.00
H2       0.69201    0.60852    0.34680   1.00
H2       0.60996    0.57024    0.35735   1.00
H2       0.62641    0.61505    0.33443   1.00
H2       0.66975    0.62881    0.38936   1.00
H2       0.75063    0.67845    0.37851   1.00
H2       0.71206    0.71740    0.39213   1.00
H2       0.79144    0.93806    0.36876   1.00
H2       0.81112    0.90619    0.34709   1.00
H2       0.73721    0.91399    0.34741   1.00
H2       0.63940    0.77644    0.38646   1.00
H2       0.69255    0.86393    0.39110   1.00
H2       0.63627    0.83726    0.37023   1.00
H2       0.63428    0.68679    0.30790   1.00
H2       0.60780    0.74426    0.29967   1.00
H2       0.69464    0.77245    0.30284   1.00
H2       0.53411    0.73143    0.32819   1.00
H2       0.54488    0.66400    0.33718   1.00
H2       0.55784    0.73146    0.35349   1.00
C4       0.80202    0.16629    0.33600   1.00
C4       0.82840    0.13969    0.35090   1.00
C3       0.73459    0.15537    0.33640   1.00
C3       0.78825    0.09450    0.36661   1.00
C3       0.84467    0.20519    0.31952   1.00
C3       0.89883    0.15911    0.35026   1.00
C2       0.75143    0.21894    0.30474   1.00
C2       0.88520    0.08692    0.38019   1.00
C3       0.70982    0.18061    0.32115   1.00
C3       0.81597    0.06932    0.38098   1.00
C3       0.81913    0.23130    0.30449   1.00
C3       0.92508    0.13087    0.36434   1.00
H1       0.70156    0.12895    0.34783   1.00
H1       0.73759    0.07820    0.36801   1.00
C5       0.91264    0.21800    0.31821   1.00
C5       0.94260    0.20607    0.33548   1.00
H1       0.66044    0.17068    0.32217   1.00
H1       0.78463    0.03726    0.39211   1.00
H1       0.85090    0.26071    0.29307   1.00
H1       0.97451    0.14184    0.36289   1.00
O3       0.94966    0.24546    0.30072   1.00
O3       1.01264    0.23577    0.33700   1.00
Si1      0.95044    0.19517    0.28309   1.00
Si1      1.05442    0.30391    0.35095   1.00
C6       0.99378    0.25847    0.26449   1.00
C6       1.00119    0.16174    0.29199   1.00
C6       0.86813    0.13373    0.27477   1.00
C6       1.00747    0.33479    0.36421   1.00
C6       1.09737    0.28009    0.36839   1.00
C6       1.11585    0.36828    0.33526   1.00
C6       0.96681    0.30937    0.26098   1.00
H2       1.04425    0.28896    0.27125   1.00
C6       1.00669    0.23924    0.24270   1.00
H2       1.03453    0.20069    0.30281   1.00
C6       0.96581    0.09321    0.30413   1.00
C6       1.04992    0.15423    0.27670   1.00
H2       0.84396    0.16456    0.27235   1.00
C6       0.86282    0.09739    0.25407   1.00
C6       0.81988    0.07404    0.28938   1.00
C6       0.96015    0.35305    0.35167   1.00
C6       0.96614    0.29629    0.38360   1.00
H2       1.04774    0.38334    0.37016   1.00
H2       1.05677    0.24288    0.37810   1.00
C6       1.13320    0.24203    0.35939   1.00
C6       1.15035    0.33678    0.38276   1.00
H2       1.15747    0.35711    0.33474   1.00
C6       1.09513    0.36759    0.31267   1.00
C6       1.14841    0.44405    0.34254   1.00
H2       0.96617    0.33437    0.27508   1.00
H2       0.91509    0.28322    0.25480   1.00
H2       0.99947    0.34987    0.25041   1.00
H2       1.05513    0.27993    0.23674   1.00
H2       1.00897    0.19243    0.24246   1.00
H2       0.96742    0.23305    0.23190   1.00
H2       1.00356    0.08578    0.31235   1.00
H2       0.93052    0.09240    0.31548   1.00
H2       0.93824    0.04963    0.29403   1.00
H2       1.08458    0.20272    0.26942   1.00
H2       1.08221    0.13798    0.28441   1.00
H2       1.02106    0.11638    0.26504   1.00
H2       0.89547    0.07465    0.25396   1.00
H2       0.81064    0.05695    0.25084   1.00
H2       0.87675    0.13268    0.24143   1.00
H2       0.82784    0.03043    0.28820   1.00
H2       0.82599    0.08868    0.30521   1.00
H2       0.76653    0.05585    0.28550   1.00
H2       0.91080    0.30819    0.34861   1.00
H2       0.95034    0.38892    0.36007   1.00
H2       0.98288    0.37707    0.33725   1.00
H2       0.94811    0.32658    0.39162   1.00
H2       0.92134    0.24760    0.37997   1.00
H2       0.99712    0.28715    0.39442   1.00
H2       1.14816    0.21929    0.37155   1.00
H2       1.09900    0.20038    0.34938   1.00
H2       1.17897    0.27625    0.35082   1.00
H2       1.12897    0.36489    0.39024   1.00
H2       1.16607    0.31410    0.39475   1.00
H2       1.19617    0.37296    0.37452   1.00
H2       1.05175    0.37570    0.31117   1.00
H2       1.13731    0.40648    0.30374   1.00
H2       1.08111    0.31866    0.30587   1.00
H2       1.19258    0.47763    0.33321   1.00
H2       1.11207    0.46235    0.34154   1.00
H2       1.16644    0.45023    0.35815   1.00
C4       0.80408    0.64241    0.83396   1.00
C4       0.82996    0.69376    0.84936   1.00
C3       0.75074    0.63159    0.82045   1.00
C3       0.80102    0.73517    0.85400   1.00
C3       0.83202    0.59844    0.83202   1.00
C3       0.88812    0.70496    0.86084   1.00
C2       0.75229    0.53528    0.80388   1.00
C2       0.88434    0.79547    0.88105   1.00
C3       0.72526    0.57927    0.80590   1.00
C3       0.82782    0.78507    0.86927   1.00
C3       0.80647    0.54679    0.81699   1.00
C3       0.91252    0.75348    0.87675   1.00
H1       0.72899    0.66155    0.82075   1.00
H1       0.75937    0.73002    0.84650   1.00
C5       0.88548    0.60654    0.84504   1.00
C5       0.92127    0.66734    0.85654   1.00
H1       0.68629    0.57356    0.79665   1.00
H1       0.80516    0.81392    0.87184   1.00
H1       0.82829    0.51686    0.81540   1.00
H1       0.95144    0.75783    0.88567   1.00
O3       0.90440    0.55741    0.84542   1.00
O3       0.98473    0.68636    0.86456   1.00
Si1      0.87046    0.49590    0.86208   1.00
Si1      1.05252    0.74434    0.85283   1.00
C6       0.90484    0.44689    0.85232   1.00
C6       0.90611    0.53111    0.88589   1.00
C6       0.78046    0.45010    0.86135   1.00
C6       1.04127    0.78228    0.83083   1.00
C6       1.09420    0.80699    0.87152   1.00
C6       1.10366    0.70802    0.84730   1.00
C6       0.89812    0.43469    0.82881   1.00
H2       0.95933    0.47989    0.85512   1.00
C6       0.88601    0.37610    0.86188   1.00
H2       0.95477    0.57517    0.88158   1.00
C6       0.86937    0.55984    0.89937   1.00
C6       0.92438    0.48856    0.90069   1.00
H2       0.77027    0.44042    0.84513   1.00
C6       0.74351    0.37851    0.87190   1.00
C6       0.73958    0.48542    0.86868   1.00
C6       0.99946    0.73456    0.81285   1.00
C6       1.01740    0.83607    0.83297   1.00
H2       1.09334    0.81225    0.82513   1.00
H2       1.06150    0.82922    0.87342   1.00
C6       1.09911    0.78061    0.89306   1.00
C6       1.16694    0.86736    0.86638   1.00
H2       1.13037    0.71248    0.86150   1.00
C6       1.06516    0.63035    0.84227   1.00
C6       1.16037    0.74312    0.83073   1.00
H2       0.92021    0.48274    0.82047   1.00
H2       0.84474    0.40373    0.82427   1.00
H2       0.92514    0.40855    0.82382   1.00
H2       0.92949    0.36776    0.86082   1.00
H2       0.87194    0.37215    0.87779   1.00
H2       0.84383    0.33358    0.85395   1.00
H2       0.90329    0.59259    0.91138   1.00
H2       0.85435    0.59109    0.89070   1.00
H2       0.82419    0.51874    0.90666   1.00
H2       0.95885    0.47413    0.89358   1.00
H2       0.95080    0.51807    0.91419   1.00
H2       0.87856    0.44256    0.90577   1.00
H2       0.76013    0.38193    0.88762   1.00
H2       0.68803    0.35608    0.87192   1.00
H2       0.75278    0.34203    0.86387   1.00
H2       0.72984    0.47961    0.88498   1.00
H2       0.76500    0.53953    0.86544   1.00
H2       0.68996    0.46235    0.86112   1.00
H2       0.94479    0.71284    0.81504   1.00
H2       1.01256    0.76317    0.79862   1.00
H2       1.00973    0.69287    0.81074   1.00
H2       1.02216    0.86165    0.81849   1.00
H2       0.96428    0.81296    0.83757   1.00
H2       1.04835    0.87611    0.84382   1.00
H2       1.11500    0.82132    0.90430   1.00
H2       1.04974    0.73885    0.89803   1.00
H2       1.13582    0.76277    0.89344   1.00
H2       1.16794    0.89044    0.85176   1.00
H2       1.18324    0.90763    0.87779   1.00
H2       1.20466    0.85075    0.86613   1.00
H2       1.03407    0.61872    0.82862   1.00
H2       1.10038    0.61106    0.84021   1.00
H2       1.03162    0.60195    0.85474   1.00
H2       1.19490    0.72246    0.83092   1.00
H2       1.13840    0.73510    0.81554   1.00
H2       1.19162    0.79785    0.83328   1.00
C4       0.36025    0.17008    0.83475   1.00
C4       0.30748    0.14329    0.84971   1.00
C3       0.36195    0.21084    0.81814   1.00
C3       0.24810    0.14934    0.84856   1.00
C3       0.41406    0.15472    0.83613   1.00
C3       0.31390    0.10855    0.86690   1.00
C2       0.46695    0.21949    0.80456   1.00
C2       0.20230    0.08637    0.88037   1.00
C3       0.41359    0.23456    0.80340   1.00
C3       0.19724    0.12223    0.86356   1.00
C3       0.46637    0.18020    0.82131   1.00
C3       0.26071    0.07909    0.88139   1.00
H1       0.32586    0.22469    0.81632   1.00
H1       0.23983    0.17323    0.83673   1.00
C5       0.41542    0.11425    0.85236   1.00
C5       0.37298    0.10282    0.86946   1.00
H1       0.41189    0.26342    0.79165   1.00
H1       0.15569    0.12867    0.86202   1.00
H1       0.50565    0.17035    0.82281   1.00
H1       0.26406    0.05066    0.89290   1.00
O3       0.46051    0.09015    0.85183   1.00
O3       0.38648    0.08177    0.88769   1.00
Si1      0.43628    0.01458    0.84254   1.00
Si1      0.42534    0.13811    0.90553   1.00
C6       0.51704    0.02054    0.84280   1.00
C6       0.38073    -0.04585   0.86032   1.00
C6       0.40371    0.00351    0.81763   1.00
C6       0.44571    0.22317    0.90095   1.00
C6       0.36845    0.10498    0.92602   1.00
C6       0.49946    0.13537    0.91192   1.00
C6       0.57741    0.08794    0.83386   1.00
H2       0.52754    0.02230    0.85902   1.00
C6       0.52703    -0.03842   0.83409   1.00
H2       0.39701    -0.01697   0.87445   1.00
C6       0.30260    -0.07197   0.85850   1.00
C6       0.38596    -0.11132   0.86411   1.00
H2       0.44223    0.04989    0.81010   1.00
C6       0.39883    -0.05747   0.80504   1.00
C6       0.33322    -0.00051   0.81391   1.00
C6       0.49091    0.26065    0.88209   1.00
C6       0.38784    0.24190    0.90150   1.00
H2       0.47712    0.24990    0.91408   1.00
H2       0.32567    0.11129    0.92141   1.00
C6       0.33703    0.02687    0.93021   1.00
C6       0.39328    0.14175    0.94695   1.00
H2       0.48116    0.09167    0.92211   1.00
C6       0.53536    0.11972    0.89426   1.00
C6       0.55725    0.19740    0.92373   1.00
H2       0.58182    0.13297    0.84137   1.00
H2       0.57059    0.09234    0.81763   1.00
H2       0.62620    0.08982    0.83601   1.00
H2       0.56631    -0.04207   0.84273   1.00
H2       0.48086    -0.08798   0.83475   1.00
H2       0.54411    -0.02950   0.81832   1.00
H2       0.27614    -0.09706   0.87253   1.00
H2       0.29227    -0.03052   0.85594   1.00
H2       0.27961    -0.10897   0.84623   1.00
H2       0.43750    -0.09838   0.86852   1.00
H2       0.35260    -0.14188   0.87653   1.00
H2       0.37111    -0.14364   0.85062   1.00
H2       0.37029    -0.10553   0.81327   1.00
H2       0.37376    -0.06322   0.79039   1.00
H2       0.44909    -0.04945   0.80138   1.00
H2       0.29045    -0.05241   0.81547   1.00
H2       0.32362    0.03124    0.82412   1.00
H2       0.33123    0.01634    0.79850   1.00
H2       0.46070    0.24850    0.86826   1.00
H2       0.51601    0.31592    0.88409   1.00
H2       0.53095    0.24812    0.87969   1.00
H2       0.40958    0.29726    0.90127   1.00
H2       0.35381    0.22165    0.88852   1.00
H2       0.35725    0.22379    0.91527   1.00
H2       0.29422    0.00895    0.94078   1.00
H2       0.31709    -0.00300   0.91632   1.00
H2       0.37422    0.01513    0.93677   1.00
H2       0.41430    0.19670    0.94560   1.00
H2       0.35063    0.12308    0.95762   1.00
H2       0.43192    0.13242    0.95370   1.00
H2       0.55390    0.15889    0.88253   1.00
H2       0.57837    0.11496    0.89970   1.00
H2       0.49973    0.07147    0.88723   1.00
H2       0.59522    0.18519    0.92947   1.00
H2       0.58373    0.24224    0.91399   1.00
H2       0.53734    0.21118    0.93683   1.00
C4       0.82961    0.19039    0.83491   1.00
C4       0.85633    0.16425    0.84985   1.00
C3       0.78184    0.14938    0.81984   1.00
C3       0.84279    0.09587    0.85007   1.00
C3       0.85234    0.26164    0.83470   1.00
C3       0.89891    0.20837    0.86556   1.00
C2       0.78058    0.24769    0.80461   1.00
C2       0.91356    0.11568    0.88032   1.00
C3       0.75827    0.17724    0.80503   1.00
C3       0.87008    0.07205    0.86499   1.00
C3       0.82698    0.28856    0.81987   1.00
C3       0.92824    0.18414    0.87994   1.00
H1       0.76259    0.09802    0.81922   1.00
H1       0.81306    0.06148    0.83932   1.00
C5       0.90004    0.30549    0.84936   1.00
C5       0.91253    0.27655    0.86677   1.00
H1       0.72411    0.14515    0.79442   1.00
H1       0.85807    0.02194    0.86449   1.00
H1       0.84230    0.33944    0.82025   1.00
H1       0.96206    0.21750    0.89030   1.00
O3       0.93032    0.37515    0.84709   1.00
O3       0.94190    0.31568    0.88388   1.00
Si1      1.00382    0.41726    0.83559   1.00
Si1      0.89296    0.30936    0.90290   1.00
C6       1.00694    0.49667    0.83451   1.00
C6       1.06637    0.42033    0.85217   1.00
C6       1.00380    0.38600    0.81106   1.00
C6       0.80470    0.25029    0.90101   1.00
C6       0.92760    0.28642    0.92319   1.00
C6       0.90639    0.39169    0.90773   1.00
C6       0.94044    0.49479    0.82689   1.00
H2       1.01143    0.51083    0.85051   1.00
C6       1.06715    0.55946    0.82354   1.00
H2       1.04244    0.41473    0.86696   1.00
C6       1.08417    0.36198    0.85093   1.00
C6       1.13679    0.48784    0.85349   1.00
H2       0.95725    0.38112    0.80449   1.00
C6       1.06319    0.43391    0.79644   1.00
C6       0.99872    0.31456    0.80857   1.00
C6       0.76467    0.25737    0.88273   1.00
C6       0.77857    0.17219    0.90335   1.00
H2       0.78445    0.26230    0.91443   1.00
H2       0.91460    0.23422    0.91964   1.00
C6       1.00718    0.32730    0.92514   1.00
C6       0.89852    0.28445    0.94484   1.00
H2       0.95329    0.41611    0.91664   1.00
C6       0.92135    0.43879    0.88891   1.00
C6       0.85175    0.39819    0.92059   1.00
H2       0.89611    0.45974    0.83589   1.00
H2       0.92991    0.47875    0.81103   1.00
H2       0.94475    0.54495    0.82815   1.00
H2       1.07822    0.60668    0.83124   1.00
H2       1.11398    0.55723    0.82330   1.00
H2       1.05479    0.56448    0.80785   1.00
H2       1.11185    0.36163    0.86449   1.00
H2       1.03873    0.31180    0.85008   1.00
H2       1.11643    0.36862    0.83784   1.00
H2       1.13055    0.53127    0.85735   1.00
H2       1.16890    0.48487    0.86538   1.00
H2       1.16470    0.49833    0.83920   1.00
H2       1.11287    0.45103    0.80344   1.00
H2       1.06170    0.40860    0.78214   1.00
H2       1.05941    0.47819    0.79211   1.00
H2       1.04869    0.31835    0.80908   1.00
H2       0.96756    0.27794    0.82005   1.00
H2       0.97597    0.29226    0.79389   1.00
H2       0.76955    0.23286    0.86913   1.00
H2       0.71026    0.23292    0.88623   1.00
H2       0.78165    0.31041    0.87913   1.00
H2       0.72298    0.14347    0.90469   1.00
H2       0.79179    0.15146    0.89037   1.00
H2       0.79839    0.16095    0.91699   1.00
H2       1.02436    0.30208    0.93584   1.00
H2       1.03180    0.33004    0.91064   1.00
H2       1.02583    0.37923    0.93053   1.00
H2       0.84292    0.25502    0.94507   1.00
H2       0.91655    0.26014    0.95560   1.00
H2       0.91488    0.33573    0.95047   1.00
H2       0.87873    0.41839    0.87830   1.00
H2       0.93301    0.49002    0.89332   1.00
H2       0.96560    0.44416    0.88087   1.00
H2       0.87073    0.45114    0.92513   1.00
H2       0.80472    0.38144    0.91200   1.00
H2       0.83915    0.36829    0.93450   1.00
C4       -0.02648   0.46767    0.33201   1.00
C4       0.02496    0.49440    0.31664   1.00
C3       -0.06849   0.39693    0.33599   1.00
C3       0.03531    0.45303    0.30254   1.00
C3       -0.03771   0.51373    0.34396   1.00
C3       0.06896    0.56643    0.31516   1.00
C2       -0.13168   0.41752    0.36268   1.00
C2       0.12911    0.55243    0.28571   1.00
C3       -0.11990   0.37248    0.35082   1.00
C3       0.08635    0.48118    0.28761   1.00
C3       -0.08898   0.48810    0.35910   1.00
C3       0.11814    0.59389    0.29947   1.00
H1       -0.06282   0.36110    0.32828   1.00
H1       0.00580    0.40127    0.30260   1.00
C5       0.00255    0.58509    0.34076   1.00
C5       0.06334    0.61075    0.32921   1.00
H1       -0.14903   0.32075    0.35292   1.00
H1       0.09187    0.44875    0.27794   1.00
H1       -0.09517   0.52182    0.36793   1.00
H1       0.14629    0.64566    0.29781   1.00
O3       -0.01569   0.62846    0.34984   1.00
O3       0.11336    0.67857    0.33062   1.00
Si1      -0.06337   0.65175    0.33758   1.00
Si1      0.17996    0.69916    0.34480   1.00
C6       -0.07744   0.69375    0.35797   1.00
C6       -0.01227   0.71004    0.31867   1.00
C6       -0.14067   0.58230    0.32882   1.00
C6       0.18628    0.63303    0.35701   1.00
C6       0.24829    0.74175    0.32784   1.00
C6       0.18455    0.75888    0.36277   1.00
C6       -0.09879   0.65389    0.37858   1.00
H2       -0.02650   0.73715    0.36057   1.00
C6       -0.12534   0.72491    0.35553   1.00
H2       0.03880    0.73045    0.32500   1.00
C6       -0.00979   0.68165    0.29725   1.00
C6       -0.02060   0.77349    0.31441   1.00
H2       -0.15923   0.54983    0.34227   1.00
C6       -0.19868   0.59729    0.32258   1.00
C6       -0.13935   0.53636    0.31115   1.00
C6       0.12698    0.58428    0.37144   1.00
C6       0.20563    0.58664    0.34433   1.00
H2       0.23034    0.66137    0.36689   1.00
H2       0.24405    0.70135    0.31787   1.00
C6       0.24505    0.79518    0.31349   1.00
C6       0.32198    0.77709    0.33688   1.00
H2       0.20832    0.80712    0.35450   1.00
C6       0.11520    0.74940    0.37043   1.00
C6       0.22938    0.77136    0.38213   1.00
H2       -0.06193   0.63899    0.38340   1.00
H2       -0.14869   0.60771    0.37740   1.00
H2       -0.10137   0.68535    0.39074   1.00
H2       -0.10655   0.77083    0.36483   1.00
H2       -0.12843   0.73908    0.33998   1.00
H2       -0.17733   0.68994    0.36061   1.00
H2       0.03366    0.71980    0.28851   1.00
H2       -0.00359   0.63709    0.29821   1.00
H2       -0.05587   0.66823    0.28856   1.00
H2       -0.01309   0.80328    0.32816   1.00
H2       0.01745    0.80817    0.30353   1.00
H2       -0.07089   0.75815    0.30814   1.00
H2       -0.18045   0.63842    0.31144   1.00
H2       -0.24270   0.55247    0.31604   1.00
H2       -0.21856   0.61089    0.33566   1.00
H2       -0.14095   0.55644    0.29624   1.00
H2       -0.09481   0.53037    0.31138   1.00
H2       -0.18386   0.48515    0.31220   1.00
H2       0.08478    0.54352    0.36309   1.00
H2       0.14480    0.55999    0.38227   1.00
H2       0.10721    0.61123    0.38027   1.00
H2       0.21691    0.55502    0.35435   1.00
H2       0.16455    0.55209    0.33435   1.00
H2       0.25122    0.61637    0.33517   1.00
H2       0.28283    0.81012    0.30135   1.00
H2       0.19523    0.77403    0.30617   1.00
H2       0.25512    0.84129    0.32161   1.00
H2       0.32964    0.74269    0.34670   1.00
H2       0.35981    0.79294    0.32472   1.00
H2       0.33306    0.82258    0.34556   1.00
H2       0.08502    0.70117    0.37838   1.00
H2       0.12251    0.79067    0.38058   1.00
H2       0.08537    0.75015    0.35764   1.00
H2       0.23650    0.81633    0.39041   1.00
H2       0.20571    0.72796    0.39250   1.00
H2       0.28010    0.78053    0.37828   1.00
C4       0.49428    1.02689    0.33189   1.00
C4       0.46964    0.97540    0.31653   1.00
C3       0.46997    1.07330    0.33453   1.00
C3       0.42287    0.96917    0.30118   1.00
C3       0.54690    1.03351    0.34523   1.00
C3       0.49252    0.92700    0.31639   1.00
C2       0.54910    1.13178    0.36265   1.00
C2       0.42344    0.87079    0.28574   1.00
C3       0.49686    1.12455    0.34941   1.00
C3       0.39989    0.91793    0.28632   1.00
C3       0.57245    1.08474    0.36039   1.00
C3       0.47100    0.87758    0.30077   1.00
H1       0.43185    1.07107    0.32578   1.00
H1       0.40445    1.00193    0.30026   1.00
C5       0.57344    0.98872    0.34340   1.00
C5       0.53718    0.92846    0.33169   1.00
H1       0.47761    1.15697    0.35051   1.00
H1       0.36561    0.91553    0.27569   1.00
H1       0.60885    1.08766    0.37021   1.00
H1       0.49120    0.84610    0.30012   1.00
O3       0.63146    1.00223    0.35392   1.00
O3       0.54915    0.87473    0.33422   1.00
Si1      0.70598    1.04542    0.34306   1.00
Si1      0.49613    0.80959    0.34792   1.00
C6       0.75578    1.05518    0.36475   1.00
C6       0.71245    0.99137    0.32505   1.00
C6       0.72255    1.12520    0.33357   1.00
C6       0.42402    0.80965    0.35818   1.00
C6       0.46933    0.74058    0.33117   1.00
C6       0.54387    0.79997    0.36741   1.00
C6       0.73544    1.07925    0.38451   1.00
H2       0.74334    1.00279    0.36778   1.00
C6       0.83572    1.09793    0.36389   1.00
H2       0.67723    0.94096    0.33116   1.00
C6       0.68787    0.99141    0.30288   1.00
C6       0.78228    0.99353    0.32268   1.00
H2       0.70796    1.14590    0.34636   1.00
C6       0.79855    1.17900    0.32863   1.00
C6       0.68166    1.12795    0.31467   1.00
C6       0.43615    0.87060    0.37211   1.00
C6       0.36279    0.79532    0.34397   1.00
H2       0.40279    0.76523    0.36815   1.00
H2       0.43771    0.74818    0.32018   1.00
C6       0.52668    0.73873    0.31839   1.00
C6       0.42410    0.66732    0.34006   1.00
H2       0.56679    0.77293    0.36014   1.00
C6       0.60527    0.86690    0.37582   1.00
C6       0.50462    0.75633    0.38638   1.00
H2       0.68185    1.04555    0.38836   1.00
H2       0.74383    1.13091    0.38281   1.00
H2       0.76518    1.07896    0.39754   1.00
H2       0.85760    1.07597    0.37414   1.00
H2       0.85595    1.09947    0.34883   1.00
H2       0.85548    1.15061    0.36877   1.00
H2       0.68086    0.94653    0.29457   1.00
H2       0.63892    0.98954    0.30252   1.00
H2       0.72507    1.03640    0.29454   1.00
H2       0.79956    0.98380    0.33709   1.00
H2       0.77809    0.95410    0.31222   1.00
H2       0.82149    1.04273    0.31676   1.00
H2       0.82116    1.15785    0.31839   1.00
H2       0.80334    1.22489    0.32153   1.00
H2       0.82913    1.19679    0.34234   1.00
H2       0.70580    1.12754    0.30038   1.00
H2       0.62958    1.08610    0.31407   1.00
H2       0.67915    1.17495    0.31497   1.00
H2       0.44332    0.91439    0.36329   1.00
H2       0.39210    0.85593    0.38196   1.00
H2       0.48026    0.88706    0.38194   1.00
H2       0.31877    0.78752    0.35292   1.00
H2       0.37507    0.83747    0.33368   1.00
H2       0.34567    0.74918    0.33498   1.00
H2       0.50432    0.70132    0.30614   1.00
H2       0.56014    0.78800    0.31125   1.00
H2       0.55807    0.72504    0.32760   1.00
H2       0.38125    0.66322    0.34878   1.00
H2       0.40257    0.62979    0.32781   1.00
H2       0.45373    0.65274    0.34979   1.00
H2       0.58909    0.90004    0.38287   1.00
H2       0.63448    0.85629    0.38696   1.00
H2       0.63995    0.89512    0.36355   1.00
H2       0.53797    0.74556    0.39577   1.00
H2       0.48570    0.78287    0.39588   1.00
H2       0.46143    0.70720    0.38204   1.00
C4       0.53262    0.50573    0.33189   1.00
C4       0.50576    0.53037    0.31654   1.00
C3       0.60335    0.53022    0.33459   1.00
C3       0.54635    0.57734    0.30123   1.00
C3       0.48659    0.45292    0.34518   1.00
C3       0.43444    0.50728    0.31634   1.00
C2       0.58268    0.45089    0.36265   1.00
C2       0.44737    0.57657    0.28574   1.00
C3       0.62771    0.50333    0.34946   1.00
C3       0.51809    0.60032    0.28637   1.00
C3       0.51227    0.42736    0.36034   1.00
C3       0.40656    0.52881    0.30072   1.00
H1       0.63924    0.56848    0.32587   1.00
H1       0.59756    0.59591    0.30035   1.00
C5       0.41525    0.42618    0.34330   1.00
C5       0.39118    0.46240    0.33160   1.00
H1       0.67938    0.52271    0.35061   1.00
H1       0.55001    0.63475    0.27578   1.00
H1       0.47877    0.39081    0.37012   1.00
H1       0.35487    0.50846    0.30003   1.00
O3       0.37077    0.36801    0.35376   1.00
O3       0.32539    0.45019    0.33408   1.00
Si1      0.33975    0.29361    0.34284   1.00
Si1      0.31294    0.50296    0.34781   1.00
C6       0.29962    0.24356    0.36448   1.00
C6       0.27930    0.28710    0.32480   1.00
C6       0.40321    0.27738    0.33338   1.00
C6       0.38488    0.57510    0.35814   1.00
C6       0.27070    0.52971    0.33105   1.00
C6       0.25546    0.45491    0.36724   1.00
C6       0.34386    0.26384    0.38428   1.00
H2       0.25952    0.25581    0.36750   1.00
C6       0.26264    0.16363    0.36356   1.00
H2       0.26392    0.32216    0.33092   1.00
C6       0.30409    0.31194    0.30265   1.00
C6       0.21178    0.21718    0.32236   1.00
H2       0.43839    0.29195    0.34619   1.00
C6       0.38129    0.20149    0.32839   1.00
C6       0.44696    0.31853    0.31453   1.00
C6       0.43370    0.56303    0.37209   1.00
C6       0.43177    0.63651    0.34400   1.00
H2       0.36148    0.59611    0.36812   1.00
H2       0.30999    0.56151    0.32010   1.00
C6       0.21172    0.47237    0.31820   1.00
C6       0.24238    0.57467    0.33995   1.00
H2       0.20556    0.43192    0.35993   1.00
C6       0.26114    0.39356    0.37562   1.00
C6       0.25075    0.49390    0.38623   1.00
H2       0.36355    0.31736    0.38817   1.00
H2       0.38724    0.25563    0.38260   1.00
H2       0.31376    0.23392    0.39728   1.00
H2       0.21872    0.14155    0.37378   1.00
H2       0.24413    0.14351    0.34848   1.00
H2       0.29566    0.14399    0.36845   1.00
H2       0.26621    0.31888    0.29433   1.00
H2       0.35107    0.36097    0.30235   1.00
H2       0.31210    0.27490    0.29430   1.00
H2       0.18466    0.19970    0.33674   1.00
H2       0.17656    0.22133    0.31188   1.00
H2       0.22199    0.17813    0.31642   1.00
H2       0.33763    0.17886    0.31811   1.00
H2       0.42255    0.19692    0.32131   1.00
H2       0.36847    0.17079    0.34207   1.00
H2       0.42259    0.29448    0.30021   1.00
H2       0.45703    0.37057    0.31396   1.00
H2       0.49655    0.32121    0.31486   1.00
H2       0.47049    0.55609    0.36329   1.00
H2       0.46289    0.60701    0.38198   1.00
H2       0.40607    0.51881    0.38189   1.00
H2       0.46782    0.68050    0.35299   1.00
H2       0.46184    0.62446    0.33372   1.00
H2       0.40272    0.65358    0.33499   1.00
H2       0.19667    0.49475    0.30596   1.00
H2       0.22774    0.43909    0.31106   1.00
H2       0.16659    0.44079    0.32737   1.00
H2       0.28097    0.61750    0.34871   1.00
H2       0.22639    0.59622    0.32770   1.00
H2       0.19811    0.54485    0.34964   1.00
H2       0.31043    0.40983    0.38271   1.00
H2       0.22126    0.36416    0.38673   1.00
H2       0.25491    0.35904    0.36332   1.00
H2       0.20659    0.46037    0.39557   1.00
H2       0.29613    0.51286    0.39577   1.00
H2       0.24468    0.53703    0.38191   1.00
C4       0.19245    0.35704    0.16622   1.00
C4       0.16557    0.30553    0.15087   1.00
C3       0.15692    0.35380    0.18431   1.00
C3       0.09819    0.24888    0.15120   1.00
C3       0.25807    0.41581    0.16334   1.00
C3       0.20795    0.31024    0.13420   1.00
C2       0.24890    0.46491    0.19605   1.00
C2       0.11447    0.20434    0.11902   1.00
C3       0.18415    0.40639    0.19877   1.00
C3       0.07351    0.19931    0.13582   1.00
C3       0.28519    0.46772    0.17828   1.00
C3       0.18116    0.26135    0.11842   1.00
H1       0.11032    0.31303    0.18754   1.00
H1       0.06491    0.24217    0.16256   1.00
C5       0.29630    0.42222    0.14559   1.00
C5       0.27658    0.36396    0.13325   1.00
H1       0.15590    0.40147    0.21149   1.00
H1       0.02455    0.15914    0.13695   1.00
H1       0.33312    0.50868    0.17628   1.00
H1       0.21071    0.26782    0.10597   1.00
O3       0.35395    0.48347    0.14126   1.00
O3       0.32205    0.36218    0.11962   1.00
Si1      0.34850    0.53875    0.12663   1.00
Si1      0.36162    0.32119    0.12581   1.00
C6       0.43259    0.60651    0.13028   1.00
C6       0.33622    0.50724    0.10162   1.00
C6       0.28804    0.56074    0.13512   1.00
C6       0.34205    0.27838    0.14941   1.00
C6       0.33973    0.26167    0.10610   1.00
C6       0.44974    0.37955    0.12416   1.00
C6       0.45787    0.62165    0.15283   1.00
H2       0.46282    0.58691    0.12311   1.00
C6       0.45743    0.67825    0.12041   1.00
H2       0.35869    0.47443    0.10225   1.00
C6       0.26152    0.46087    0.09388   1.00
C6       0.37393    0.55864    0.08393   1.00
H2       0.30051    0.57078    0.15122   1.00
C6       0.29312    0.62729    0.12621   1.00
C6       0.20990    0.50658    0.13392   1.00
C6       0.35161    0.32099    0.16904   1.00
C6       0.27302    0.20989    0.15205   1.00
H2       0.38037    0.26270    0.15044   1.00
H2       0.28575    0.22573    0.10867   1.00
C6       0.34409    0.28952    0.08409   1.00
C6       0.37628    0.21859    0.10561   1.00
H2       0.46096    0.38109    0.10800   1.00
C6       0.47315    0.45484    0.12997   1.00
C6       0.49978    0.36134    0.13522   1.00
H2       0.45280    0.57628    0.16030   1.00
H2       0.42896    0.63958    0.16161   1.00
H2       0.51181    0.66059    0.15365   1.00
H2       0.51144    0.70201    0.11644   1.00
H2       0.42974    0.67558    0.10665   1.00
H2       0.45272    0.71334    0.13075   1.00
H2       0.26088    0.43339    0.08016   1.00
H2       0.22994    0.42224    0.10495   1.00
H2       0.23756    0.49103    0.09016   1.00
H2       0.42892    0.58723    0.08642   1.00
H2       0.36626    0.53210    0.06946   1.00
H2       0.35522    0.59444    0.08218   1.00
H2       0.29284    0.62646    0.10965   1.00
H2       0.25091    0.63426    0.13122   1.00
H2       0.33897    0.67248    0.13140   1.00
H2       0.18791    0.50738    0.11926   1.00
H2       0.19873    0.45473    0.13643   1.00
H2       0.18192    0.51738    0.14549   1.00
H2       0.30761    0.32710    0.17194   1.00
H2       0.35764    0.29541    0.18229   1.00
H2       0.39673    0.37145    0.16830   1.00
H2       0.27271    0.18501    0.16631   1.00
H2       0.22938    0.21768    0.15244   1.00
H2       0.26474    0.17343    0.14004   1.00
H2       0.31877    0.24732    0.07333   1.00
H2       0.31842    0.31941    0.08298   1.00
H2       0.39673    0.32150    0.07909   1.00
H2       0.37399    0.19532    0.12029   1.00
H2       0.35156    0.17699    0.09463   1.00
H2       0.42969    0.24963    0.10116   1.00
H2       0.46221    0.45981    0.14578   1.00
H2       0.52771    0.48833    0.12739   1.00
H2       0.44680    0.47376    0.12059   1.00
H2       0.55245    0.39580    0.13054   1.00
H2       0.49736    0.36550    0.15168   1.00
H2       0.48867    0.30980    0.13163   1.00
C4       0.63559    0.83266    0.16397   1.00
C4       0.68845    0.85939    0.14903   1.00
C3       0.57293    0.83206    0.16171   1.00
C3       0.68656    0.89371    0.13122   1.00
C3       0.64581    0.80584    0.18238   1.00
C3       0.74666    0.85155    0.15184   1.00
C2       0.53263    0.78079    0.19531   1.00
C2       0.79812    0.91335    0.11976   1.00
C3       0.52301    0.80721    0.17699   1.00
C3       0.73956    0.91940    0.11689   1.00
C3       0.59428    0.77984    0.19745   1.00
C3       0.80083    0.88036    0.13765   1.00
H1       0.56163    0.84944    0.14888   1.00
H1       0.64682    0.90144    0.12820   1.00
C5       0.70730    0.80490    0.18560   1.00
C5       0.75087    0.81558    0.16885   1.00
H1       0.47890    0.80853    0.17457   1.00
H1       0.73516    0.94325    0.10422   1.00
H1       0.60154    0.75903    0.21034   1.00
H1       0.84404    0.87812    0.14054   1.00
O3       0.72176    0.78975    0.20455   1.00
O3       0.79946    0.79573    0.16983   1.00
Si1      0.76734    0.85127    0.22045   1.00
Si1      0.78342    0.72435    0.15905   1.00
C6       0.75623    0.79941    0.24174   1.00
C6       0.85237    0.89227    0.21179   1.00
C6       0.73395    0.90579    0.22495   1.00
C6       0.70554    0.67717    0.14584   1.00
C6       0.85168    0.74998    0.14207   1.00
C6       0.79090    0.67332    0.17790   1.00
C6       0.68121    0.74167    0.24614   1.00
H2       0.78324    0.77294    0.23711   1.00
C6       0.78672    0.83171    0.26296   1.00
H2       0.85347    0.85194    0.20303   1.00
C6       0.87653    0.95395    0.19691   1.00
C6       0.91102    0.91565    0.22776   1.00
H2       0.68007    0.86954    0.22774   1.00
C6       0.76029    0.95263    0.24418   1.00
C6       0.73639    0.95464    0.20762   1.00
C6       0.63776    0.65458    0.15771   1.00
C6       0.69648    0.70255    0.12458   1.00
H2       0.70528    0.62993    0.14234   1.00
H2       0.84191    0.77829    0.13043   1.00
C6       0.92424    0.80100    0.15061   1.00
C6       0.85803    0.69267    0.13079   1.00
H2       0.84572    0.69296    0.17901   1.00
C6       0.76847    0.68010    0.19973   1.00
C6       0.75783    0.59501    0.17374   1.00
H2       0.65845    0.70873    0.23296   1.00
H2       0.64895    0.76301    0.25028   1.00
H2       0.67945    0.70879    0.25855   1.00
H2       0.80191    0.79946    0.27118   1.00
H2       0.83137    0.88227    0.26183   1.00
H2       0.74969    0.83594    0.27256   1.00
H2       0.92411    0.96512    0.18942   1.00
H2       0.83970    0.94358    0.18488   1.00
H2       0.88583    0.99996    0.20495   1.00
H2       0.90431    0.87317    0.23721   1.00
H2       0.96066    0.93549    0.22037   1.00
H2       0.91372    0.95598    0.23748   1.00
H2       0.81591    0.98285    0.24433   1.00
H2       0.74055    0.98791    0.24497   1.00
H2       0.74303    0.92287    0.25805   1.00
H2       0.78423    1.00320    0.20764   1.00
H2       0.73029    0.93324    0.19256   1.00
H2       0.69528    0.96619    0.20970   1.00
H2       0.62503    0.69501    0.15826   1.00
H2       0.59515    0.61084    0.15029   1.00
H2       0.64005    0.63921    0.17320   1.00
H2       0.65004    0.66346    0.11718   1.00
H2       0.69208    0.74813    0.12568   1.00
H2       0.73839    0.71320    0.11431   1.00
H2       0.96124    0.82274    0.13824   1.00
H2       0.92467    0.84371    0.15847   1.00
H2       0.94231    0.77632    0.16114   1.00
H2       0.80996    0.65555    0.12377   1.00
H2       0.89580    0.71456    0.11861   1.00
H2       0.87439    0.66577    0.14106   1.00
H2       0.71446    0.66430    0.20048   1.00
H2       0.77845    0.64995    0.21068   1.00
H2       0.79728    0.73284    0.20465   1.00
H2       0.77474    0.57106    0.18497   1.00
H2       0.70222    0.56936    0.17447   1.00
H2       0.77219    0.58489    0.15891   1.00
C4       0.16628    0.80202    0.16400   1.00
C4       0.13969    0.82840    0.14910   1.00
C3       0.15529    0.73455    0.16361   1.00
C3       0.09442    0.78822    0.13340   1.00
C3       0.20526    0.84469    0.18046   1.00
C3       0.15917    0.89885    0.14973   1.00
C2       0.21894    0.75142    0.19526   1.00
C2       0.08692    0.88521    0.11981   1.00
C3       0.18054    0.70979    0.17886   1.00
C3       0.06925    0.81595    0.11904   1.00
C3       0.23137    0.81915    0.19549   1.00
C3       0.13094    0.92510    0.13564   1.00
H1       0.12881    0.70151    0.15219   1.00
H1       0.07807    0.73755    0.13201   1.00
C5       0.21815    0.91269    0.18176   1.00
C5       0.20620    0.94263    0.16449   1.00
H1       0.17055    0.66039    0.17785   1.00
H1       0.03714    0.78460    0.10792   1.00
H1       0.26083    0.85094    0.20690   1.00
H1       0.14197    0.97455    0.13709   1.00
O3       0.24568    0.94976    0.19924   1.00
O3       0.23597    1.01267    0.16295   1.00
Si1      0.19548    0.95065    0.21688   1.00
Si1      0.30407    1.05435    0.14898   1.00
C6       0.25885    0.99400    0.23546   1.00
C6       0.16211    1.00144    0.20798   1.00
C6       0.13400    0.86838    0.22522   1.00
C6       0.33484    1.00731    0.13573   1.00
C6       0.28026    1.09730    0.13154   1.00
C6       0.36853    1.11580    0.16465   1.00
C6       0.30970    0.96696    0.23897   1.00
H2       0.28937    1.04443    0.22868   1.00
C6       0.23971    1.00700    0.25725   1.00
H2       0.20103    1.03472    0.19714   1.00
C6       0.09354    0.96608    0.19585   1.00
C6       0.15470    1.05026    0.22326   1.00
H2       0.16480    0.84417    0.22764   1.00
C6       0.09775    0.86318    0.24593   1.00
C6       0.07425    0.82013    0.21064   1.00
C6       0.35307    0.95997    0.14827   1.00
C6       0.29625    0.96593    0.11635   1.00
H2       0.38338    1.04752    0.12976   1.00
H2       0.24300    1.05670    0.12185   1.00
C6       0.24229    1.13323    0.14054   1.00
C6       0.33694    1.15021    0.11715   1.00
H2       0.35741    1.15745    0.16516   1.00
C6       0.36788    1.09513    0.18724   1.00
C6       0.44427    1.14826    0.15735   1.00
H2       0.33465    0.96624    0.22486   1.00
H2       0.28353    0.91526    0.24516   1.00
H2       0.35025    0.99963    0.24952   1.00
H2       0.28046    1.05544    0.26319   1.00
H2       0.19293    1.00933    0.25750   1.00
H2       0.23352    0.96774    0.26806   1.00
H2       0.08613    1.00384    0.18763   1.00
H2       0.09265    0.93074    0.18451   1.00
H2       0.04998    0.93857    0.20597   1.00
H2       0.20323    1.08489    0.23053   1.00
H2       0.13848    1.08256    0.21554   1.00
H2       0.11688    1.02145    0.23493   1.00
H2       0.07506    0.89587    0.24604   1.00
H2       0.05727    0.81102    0.24918   1.00
H2       0.13306    0.87712    0.25856   1.00
H2       0.03068    0.82815    0.21182   1.00
H2       0.08884    0.82618    0.19480   1.00
H2       0.05602    0.76679    0.21453   1.00
H2       0.30819    0.91065    0.15134   1.00
H2       0.38889    0.95009    0.13987   1.00
H2       0.37714    0.98273    0.16268   1.00
H2       0.32648    0.94784    0.10833   1.00
H2       0.24755    0.92118    0.11999   1.00
H2       0.28713    0.99691    0.10553   1.00
H2       0.21955    1.14819    0.12838   1.00
H2       0.20066    1.09909    0.15057   1.00
H2       0.27657    1.17901    0.14909   1.00
H2       0.36498    1.12876    0.10967   1.00
H2       0.31425    1.16593    0.10516   1.00
H2       0.37318    1.19603    0.12537   1.00
H2       0.37594    1.05172    0.18875   1.00
H2       0.40683    1.13732    0.19615   1.00
H2       0.31899    1.08118    0.19406   1.00
H2       0.47791    1.19245    0.16666   1.00
H2       0.46251    1.11188    0.15835   1.00
H2       0.45041    1.16625    0.14174   1.00
C4       1.02411    0.52449    0.66724   1.00
C4       0.97274    0.49801    0.68263   1.00
C3       1.03216    0.48318    0.65256   1.00
C3       0.92841    0.42725    0.68603   1.00
C3       1.07099    0.59611    0.66654   1.00
C3       0.96460    0.54433    0.69541   1.00
C2       1.13140    0.58157    0.63723   1.00
C2       0.87117    0.44848    0.71438   1.00
C3       1.08454    0.51083    0.63803   1.00
C3       0.87859    0.40313    0.70134   1.00
C3       1.12269    0.62316    0.65153   1.00
C3       0.91605    0.51896    0.71131   1.00
H1       1.00006    0.43182    0.65194   1.00
H1       0.93129    0.39114    0.67757   1.00
C5       1.06575    0.64028    0.68077   1.00
C5       1.00527    0.61566    0.69242   1.00
H1       1.08816    0.47839    0.62789   1.00
H1       0.84757    0.35142    0.70298   1.00
H1       1.15477    0.67484    0.65085   1.00
H1       0.91383    0.55272    0.72114   1.00
O3       1.11739    0.70715    0.68222   1.00
O3       0.98943    0.66061    0.70178   1.00
Si1      1.17853    0.72826    0.69872   1.00
Si1      0.93390    0.67657    0.69109   1.00
C6       1.23103    0.81306    0.69044   1.00
C6       1.14429    0.72559    0.72294   1.00
C6       1.22029    0.68043    0.69628   1.00
C6       0.89437    0.63310    0.66841   1.00
C6       0.87183    0.65464    0.71002   1.00
C6       0.97432    0.76537    0.68730   1.00
C6       1.24333    0.82307    0.66698   1.00
H2       1.20031    0.83640    0.69421   1.00
C6       1.30265    0.86018    0.70036   1.00
H2       1.10188    0.73378    0.71934   1.00
C6       1.11247    0.65717    0.73512   1.00
C6       1.18903    0.78229    0.73867   1.00
H2       1.22975    0.68286    0.67996   1.00
C6       1.29166    0.70952    0.70673   1.00
C6       1.18150    0.60273    0.70213   1.00
C6       0.94107    0.64028    0.65000   1.00
C6       0.83762    0.55609    0.66930   1.00
H2       0.86666    0.65872    0.66368   1.00
H2       0.84702    0.59918    0.71084   1.00
C6       0.89912    0.68054    0.73195   1.00
C6       0.81409    0.67194    0.70600   1.00
H2       0.97123    0.78537    0.70209   1.00
C6       1.05194    0.80214    0.68225   1.00
C6       0.94170    0.79316    0.67179   1.00
H2       1.19527    0.80103    0.65863   1.00
H2       1.27202    0.79926    0.66148   1.00
H2       1.27184    0.87716    0.66299   1.00
H2       1.31380    0.91307    0.70049   1.00
H2       1.30577    0.84611    0.71591   1.00
H2       1.34391    0.85977    0.69190   1.00
H2       1.08073    0.65767    0.74755   1.00
H2       1.07950    0.61341    0.72572   1.00
H2       1.15201    0.64903    0.74174   1.00
H2       1.20595    0.83315    0.73262   1.00
H2       1.16016    0.77790    0.75245   1.00
H2       1.23359    0.77871    0.74314   1.00
H2       1.28903    0.71985    0.72278   1.00
H2       1.31143    0.67431    0.70563   1.00
H2       1.32976    0.75606    0.69939   1.00
H2       1.18680    0.59483    0.71821   1.00
H2       1.12739    0.57715    0.69889   1.00
H2       1.20233    0.57580    0.69362   1.00
H2       0.96015    0.60476    0.65107   1.00
H2       0.91251    0.62911    0.63580   1.00
H2       0.98457    0.69162    0.64866   1.00
H2       0.81169    0.53936    0.65467   1.00
H2       0.85820    0.52297    0.67282   1.00
H2       0.79821    0.54674    0.68041   1.00
H2       0.85812    0.65500    0.74307   1.00
H2       0.93910    0.66924    0.73617   1.00
H2       0.91963    0.73537    0.73347   1.00
H2       0.79052    0.65381    0.69117   1.00
H2       0.77358    0.64721    0.71732   1.00
H2       0.83342    0.72676    0.70691   1.00
H2       1.06214    0.78446    0.66800   1.00
H2       1.07388    0.85737    0.68132   1.00
H2       1.07908    0.79252    0.69419   1.00
H2       0.96499    0.84853    0.67309   1.00
H2       0.94874    0.78168    0.65617   1.00
H2       0.88725    0.77169    0.67446   1.00
C4       0.50093    -0.02393   0.66719   1.00
C4       0.52572    0.02747    0.68257   1.00
C3       0.45674    -0.02798   0.65129   1.00
C3       0.50394    0.07608    0.68467   1.00
C3       0.52025    -0.07503   0.66776   1.00
C3       0.57518    0.03113    0.69671   1.00
C2       0.45034    -0.13144   0.63724   1.00
C2       0.57712    0.12887    0.71437   1.00
C3       0.43181    -0.08044   0.63680   1.00
C3       0.52939    0.12580    0.70001   1.00
C3       0.49556    -0.12680   0.65277   1.00
C3       0.59798    0.07976    0.71257   1.00
H1       0.44157    0.00721    0.64974   1.00
H1       0.46864    0.07654    0.67520   1.00
C5       0.56433    -0.07392   0.68324   1.00
C5       0.60122    -0.01404   0.69507   1.00
H1       0.39960    -0.08104   0.62574   1.00
H1       0.51223    0.16001    0.70068   1.00
H1       0.51136    -0.16200   0.65304   1.00
H1       0.63006    0.07891    0.72334   1.00
O3       0.57369    -0.12910   0.68576   1.00
O3       0.65819    -0.00295   0.70588   1.00
Si1      0.52631    -0.18907   0.70187   1.00
Si1      0.73356    0.04838    0.69650   1.00
C6       0.55403    -0.24676   0.69517   1.00
C6       0.55384    -0.15604   0.72645   1.00
C6       0.43805    -0.22451   0.69749   1.00
C6       0.73867    0.08975    0.67328   1.00
C6       0.77299    0.10958    0.71570   1.00
C6       0.77660    0.00185    0.69457   1.00
C6       0.55612    -0.25955   0.67187   1.00
H2       0.60727    -0.21960   0.70003   1.00
C6       0.52193    -0.31910   0.70528   1.00
H2       0.60656    -0.11645   0.72372   1.00
C6       0.51925    -0.11949   0.73718   1.00
C6       0.55746    -0.20362   0.74302   1.00
H2       0.43427    -0.23385   0.68115   1.00
C6       0.38900    -0.29498   0.70764   1.00
C6       0.40336    -0.18053   0.70177   1.00
C6       0.70112    0.04451    0.65444   1.00
C6       0.72446    0.15072    0.67290   1.00
H2       0.79288    0.11377    0.66969   1.00
H2       0.74601    0.13821    0.71535   1.00
C6       0.76413    0.08144    0.73786   1.00
C6       0.85039    0.16294    0.71303   1.00
H2       0.79540    0.00310    0.70990   1.00
C6       0.73188    -0.07539   0.68938   1.00
C6       0.84047    0.03027    0.68035   1.00
H2       0.58713    -0.21189   0.66367   1.00
H2       0.50495    -0.28475   0.66530   1.00
H2       0.57868    -0.29160   0.66896   1.00
H2       0.56046    -0.33449   0.70671   1.00
H2       0.50177    -0.32067   0.72035   1.00
H2       0.48056    -0.35840   0.69622   1.00
H2       0.54989    -0.08922   0.75006   1.00
H2       0.51420    -0.08422   0.72710   1.00
H2       0.46886    -0.15633   0.74296   1.00
H2       0.58948    -0.22437   0.73814   1.00
H2       0.58017    -0.17564   0.75707   1.00
H2       0.50668    -0.24567   0.74671   1.00
H2       0.39785    -0.29328   0.72397   1.00
H2       0.33529    -0.31062   0.70528   1.00
H2       0.39518    -0.33551   0.70104   1.00
H2       0.38667    -0.18472   0.71750   1.00
H2       0.43615    -0.12674   0.69864   1.00
H2       0.35811    -0.19798   0.69223   1.00
H2       0.64732    0.02956    0.65424   1.00
H2       0.72350    0.07258    0.64040   1.00
H2       0.70487    -0.00154   0.65386   1.00
H2       0.73893    0.17680    0.65824   1.00
H2       0.67082    0.13416    0.67519   1.00
H2       0.75404    0.18917    0.68431   1.00
H2       0.78000    0.12286    0.74885   1.00
H2       0.71083    0.04444    0.74115   1.00
H2       0.79444    0.05698    0.74058   1.00
H2       0.86112    0.18690    0.69810   1.00
H2       0.86649    0.20382    0.72423   1.00
H2       0.88208    0.13960    0.71515   1.00
H2       0.70777    -0.08361   0.67454   1.00
H2       0.76166    -0.10126   0.68965   1.00
H2       0.69178    -0.10025   0.70061   1.00
H2       0.86846    0.00311    0.68283   1.00
H2       0.82584    0.02448    0.66437   1.00
H2       0.87614    0.08405    0.68324   1.00
C4       0.47514    0.49909    0.66719   1.00
C4       0.50175    0.47430    0.68257   1.00
C3       0.51534    0.54349    0.65134   1.00
C3       0.57217    0.49627    0.68472   1.00
C3       0.40467    0.47955    0.66771   1.00
C3       0.45592    0.42463    0.69666   1.00
C2       0.41823    0.54967    0.63724   1.00
C2       0.55172    0.42287    0.71437   1.00
C3       0.48781    0.56842    0.63684   1.00
C3       0.59644    0.47081    0.70006   1.00
C3       0.37759    0.50424    0.65272   1.00
C3       0.48172    0.40182    0.71253   1.00
H1       0.56576    0.55883    0.64983   1.00
H1       0.60795    0.53172    0.67529   1.00
C5       0.36164    0.43526    0.68315   1.00
C5       0.38469    0.39841    0.69497   1.00
H1       0.51946    0.60078    0.62582   1.00
H1       0.64782    0.48811    0.70077   1.00
H1       0.32655    0.48828    0.65296   1.00
H1       0.44875    0.36957    0.72325   1.00
O3       0.29699    0.42565    0.68562   1.00
O3       0.33883    0.34127    0.70572   1.00
Si1      0.28407    0.47276    0.70175   1.00
Si1      0.31510    0.26604    0.69629   1.00
C6       0.19866    0.44484    0.69499   1.00
C6       0.28944    0.44506    0.72632   1.00
C6       0.33670    0.56109    0.69745   1.00
C6       0.35166    0.26128    0.67309   1.00
C6       0.33688    0.22658    0.71547   1.00
C6       0.22555    0.22277    0.69428   1.00
C6       0.18397    0.44292    0.67169   1.00
H2       0.17268    0.39156    0.69981   1.00
C6       0.15814    0.47665    0.70510   1.00
H2       0.27650    0.39242    0.72356   1.00
C6       0.36049    0.47975    0.73711   1.00
C6       0.23801    0.44112    0.74287   1.00
H2       0.33126    0.56499    0.68111   1.00
C6       0.31498    0.60988    0.70762   1.00
C6       0.41535    0.59595    0.70179   1.00
C6       0.34400    0.29891    0.65426   1.00
C6       0.42693    0.27574    0.67275   1.00
H2       0.32163    0.20709    0.66945   1.00
H2       0.39250    0.25371    0.71517   1.00
C6       0.31733    0.23515    0.73763   1.00
C6       0.31309    0.14925    0.71275   1.00
H2       0.20790    0.20381    0.70960   1.00
C6       0.19286    0.26735    0.68911   1.00
C6       0.19039    0.15902    0.68002   1.00
H2       0.20084    0.41210    0.66347   1.00
H2       0.20987    0.49416    0.66516   1.00
H2       0.12937    0.42024    0.66874   1.00
H2       0.10424    0.43798    0.70648   1.00
H2       0.17655    0.49671    0.72019   1.00
H2       0.16015    0.51804    0.69607   1.00
H2       0.36010    0.44904    0.74997   1.00
H2       0.40095    0.48503    0.72705   1.00
H2       0.37383    0.53004    0.74293   1.00
H2       0.18531    0.40901    0.73794   1.00
H2       0.24325    0.41834    0.75690   1.00
H2       0.24654    0.49181    0.74659   1.00
H2       0.30770    0.60087    0.72394   1.00
H2       0.35294    0.66365    0.70531   1.00
H2       0.26826    0.60360    0.70099   1.00
H2       0.42766    0.61251    0.71754   1.00
H2       0.43653    0.56333    0.69866   1.00
H2       0.44312    0.64132    0.69230   1.00
H2       0.38272    0.35275    0.65411   1.00
H2       0.34990    0.27672    0.64021   1.00
H2       0.29412    0.29499    0.65365   1.00
H2       0.43874    0.26147    0.65809   1.00
H2       0.46385    0.32939    0.67509   1.00
H2       0.43581    0.24613    0.68415   1.00
H2       0.34287    0.21929    0.74863   1.00
H2       0.33344    0.28838    0.74096   1.00
H2       0.26254    0.20467    0.74030   1.00
H2       0.32651    0.13872    0.69782   1.00
H2       0.33788    0.13317    0.72395   1.00
H2       0.25806    0.11741    0.71483   1.00
H2       0.20882    0.29160    0.67428   1.00
H2       0.13721    0.23742    0.68933   1.00
H2       0.20788    0.30733    0.70036   1.00
H2       0.13523    0.13087    0.68245   1.00
H2       0.19934    0.17380    0.66404   1.00
H2       0.20863    0.12345    0.68289   1.00
C4       0.47278    -0.03044   0.16917   1.00
C4       0.50000    0.02264    0.18404   1.00
C3       0.49808    -0.07574   0.16585   1.00
C3       0.55903    0.03967    0.19576   1.00
C3       0.41786    -0.03849   0.15662   1.00
C3       0.46673    0.06111    0.18757   1.00
C2       0.41719    -0.13429   0.13811   1.00
C2       0.55276    0.13172    0.21350   1.00
C3       0.47134    -0.12599   0.15068   1.00
C3       0.58434    0.09228    0.21022   1.00
C3       0.39075    -0.09033   0.14166   1.00
C3       0.49474    0.11581    0.20159   1.00
H1       0.53651    -0.07371   0.17440   1.00
H1       0.58561    0.01465    0.19406   1.00
C5       0.39018    0.00510    0.15916   1.00
C5       0.40609    0.04530    0.17699   1.00
H1       0.49203    -0.15697   0.14888   1.00
H1       0.62687    0.10193    0.21838   1.00
H1       0.35012    -0.09672   0.13315   1.00
H1       0.47285    0.14564    0.20300   1.00
O3       0.34538    0.00478    0.14496   1.00
O3       0.36594    0.07231    0.18295   1.00
Si1      0.37396    0.05920    0.12622   1.00
Si1      0.30967    0.03410    0.20085   1.00
C6       0.29688    0.02468    0.11246   1.00
C6       0.39664    0.13999    0.13624   1.00
C6       0.43841    0.05608    0.11199   1.00
C6       0.30487    -0.03864   0.21241   1.00
C6       0.33257    0.09844    0.21909   1.00
C6       0.22963    0.01405    0.19085   1.00
C6       0.25807    -0.05462   0.10943   1.00
H2       0.26462    0.03465    0.12255   1.00
C6       0.29354    0.05487    0.09133   1.00
H2       0.36439    0.12645    0.14970   1.00
C6       0.47135    0.18644    0.14396   1.00
C6       0.37996    0.18832    0.12359   1.00
H2       0.41651    0.00135    0.10948   1.00
C6       0.45444    0.08968    0.09043   1.00
C6       0.51061    0.08209    0.12175   1.00
C6       0.29133    -0.10013   0.19851   1.00
C6       0.36135    -0.02964   0.22786   1.00
H2       0.25932    -0.05729   0.22181   1.00
H2       0.38052    0.10576    0.22524   1.00
C6       0.34918    0.17001    0.21087   1.00
C6       0.28356    0.08240    0.23757   1.00
H2       0.22879    0.06171    0.19204   1.00
C6       0.21810    -0.00487   0.16789   1.00
C6       0.16414    -0.04102   0.20208   1.00
H2       0.24793    -0.08142   0.12391   1.00
H2       0.28743    -0.07039   0.09999   1.00
H2       0.20860    -0.07239   0.10217   1.00
H2       0.24366    0.05072    0.08933   1.00
H2       0.33193    0.10831    0.08963   1.00
H2       0.29983    0.02728    0.07869   1.00
H2       0.47485    0.22749    0.15355   1.00
H2       0.48886    0.15835    0.15318   1.00
H2       0.50665    0.21006    0.13132   1.00
H2       0.32581    0.16374    0.11988   1.00
H2       0.39174    0.23438    0.13213   1.00
H2       0.40960    0.20438    0.10957   1.00
H2       0.46568    0.14249    0.09118   1.00
H2       0.49809    0.08954    0.08334   1.00
H2       0.41219    0.06154    0.08005   1.00
H2       0.54429    0.13676    0.11954   1.00
H2       0.50884    0.07259    0.13790   1.00
H2       0.53544    0.05637    0.11472   1.00
H2       0.33812    -0.09300   0.19159   1.00
H2       0.26997    -0.14721   0.20737   1.00
H2       0.25507    -0.10855   0.18647   1.00
H2       0.34631    -0.07760   0.23576   1.00
H2       0.40984    -0.01448   0.22048   1.00
H2       0.36983    0.00775    0.23959   1.00
H2       0.37380    0.20887    0.22264   1.00
H2       0.38449    0.18586    0.19806   1.00
H2       0.30338    0.17049    0.20599   1.00
H2       0.27072    0.03395    0.24470   1.00
H2       0.30782    0.12183    0.24921   1.00
H2       0.23635    0.08079    0.23307   1.00
H2       0.22040    -0.05083   0.16455   1.00
H2       0.16897    -0.01262   0.16264   1.00
H2       0.25716    0.03646    0.15895   1.00
H2       0.11868    -0.04126   0.19636   1.00
H2       0.15665    -0.09217   0.19991   1.00
H2       0.16648    -0.03106   0.21832   1.00
C4       1.02744    0.49451    0.16828   1.00
C4       0.97586    0.46996    0.18361   1.00
C3       1.07921    0.47667    0.16726   1.00
C3       0.97456    0.43024    0.20045   1.00
C3       1.02842    0.54032    0.15323   1.00
C3       0.92218    0.48549    0.18216   1.00
C2       1.13194    0.54901    0.13740   1.00
C2       0.87063    0.42353    0.21421   1.00
C3       1.13027    0.50344    0.15232   1.00
C3       0.92307    0.40711    0.21523   1.00
C3       1.07961    0.56576    0.13806   1.00
C3       0.87242    0.46416    0.19767   1.00
H1       1.08121    0.44353    0.17730   1.00
H1       1.01122    0.41730    0.20254   1.00
C5       0.97810    0.56020    0.15338   1.00
C5       0.91870    0.52269    0.16536   1.00
H1       1.16669    0.48909    0.15243   1.00
H1       0.92441    0.37806    0.22699   1.00
H1       1.07856    0.59708    0.12704   1.00
H1       0.83688    0.47938    0.19709   1.00
O3       0.98567    0.61270    0.14106   1.00
O3       0.86073    0.52664    0.16156   1.00
Si1      1.02227    0.69046    0.14989   1.00
Si1      0.79852    0.46541    0.14879   1.00
C6       1.02702    0.73154    0.12669   1.00
C6       0.96431    0.69533    0.16670   1.00
C6       1.10423    0.71826    0.16001   1.00
C6       0.80719    0.39526    0.14117   1.00
C6       0.72872    0.43716    0.16531   1.00
C6       0.78307    0.50291    0.12754   1.00
C6       1.05505    0.70964    0.10815   1.00
H2       0.97333    0.71278    0.12328   1.00
C6       1.06266    0.81133    0.12537   1.00
H2       0.91543    0.65469    0.16108   1.00
C6       0.96691    0.67903    0.18964   1.00
C6       0.95835    0.76128    0.16659   1.00
H2       1.12793    0.70338    0.14814   1.00
C6       1.15192    0.79691    0.16306   1.00
C6       1.11166    0.68613    0.18031   1.00
C6       0.87018    0.40974    0.12786   1.00
C6       0.79908    0.34078    0.15726   1.00
H2       0.76304    0.36722    0.13130   1.00
H2       0.74029    0.41190    0.17749   1.00
C6       0.71986    0.49410    0.17594   1.00
C6       0.65698    0.38364    0.15691   1.00
H2       0.75178    0.52315    0.13352   1.00
C6       0.84649    0.56560    0.11805   1.00
C6       0.74197    0.45552    0.10938   1.00
H2       1.02589    0.65459    0.10570   1.00
H2       1.10846    0.72415    0.11037   1.00
H2       1.05144    0.73343    0.09413   1.00
H2       1.03711    0.82601    0.11404   1.00
H2       1.06169    0.83480    0.13965   1.00
H2       1.11591    0.83459    0.12065   1.00
H2       0.92035    0.66958    0.19743   1.00
H2       0.97068    0.63336    0.19171   1.00
H2       1.00983    0.72152    0.19731   1.00
H2       0.94628    0.77192    0.15149   1.00
H2       0.91716    0.75575    0.17652   1.00
H2       1.00551    0.80543    0.17187   1.00
H2       1.12684    0.81845    0.17210   1.00
H2       1.19961    0.80898    0.17069   1.00
H2       1.16728    0.82344    0.14862   1.00
H2       1.10819    0.71279    0.19365   1.00
H2       1.07367    0.63282    0.18210   1.00
H2       1.16147    0.68935    0.18085   1.00
H2       0.91534    0.42428    0.13707   1.00
H2       0.86003    0.36406    0.11940   1.00
H2       0.88248    0.44985    0.11676   1.00
H2       0.79615    0.29621    0.14981   1.00
H2       0.84189    0.36031    0.16773   1.00
H2       0.75234    0.32197    0.16608   1.00
H2       0.68290    0.47243    0.18832   1.00
H2       0.76774    0.53326    0.18262   1.00
H2       0.70189    0.51894    0.16543   1.00
H2       0.65782    0.34068    0.14971   1.00
H2       0.61980    0.36273    0.16926   1.00
H2       0.63828    0.40658    0.14594   1.00
H2       0.88340    0.55242    0.11215   1.00
H2       0.83205    0.58820    0.10576   1.00
H2       0.87197    0.60489    0.12947   1.00
H2       0.72684    0.48249    0.09868   1.00
H2       0.77228    0.43828    0.10104   1.00
H2       0.69522    0.41072    0.11446   1.00
C4       0.50574    0.53261    0.16811   1.00
C4       0.53037    0.50576    0.18346   1.00
C3       0.53038    0.60335    0.16536   1.00
C3       0.57751    0.54638    0.19873   1.00
C3       0.45276    0.48657    0.15486   1.00
C3       0.50711    0.43440    0.18370   1.00
C2       0.45089    0.58268    0.13735   1.00
C2       0.57657    0.44737    0.21426   1.00
C3       0.50348    0.62772    0.15049   1.00
C3       0.60049    0.51813    0.21359   1.00
C3       0.42720    0.51225    0.13971   1.00
C3       0.52864    0.40654    0.19932   1.00
H1       0.56875    0.63925    0.17405   1.00
H1       0.59622    0.59762    0.19957   1.00
C5       0.42587    0.41522    0.15678   1.00
C5       0.46205    0.39109    0.16848   1.00
H1       0.52298    0.67940    0.14932   1.00
H1       0.63505    0.55007    0.22415   1.00
H1       0.39053    0.47873    0.12995   1.00
H1       0.50818    0.35483    0.20004   1.00
O3       0.36757    0.37076    0.14637   1.00
O3       0.44965    0.32522    0.16603   1.00
Si1      0.29327    0.34000    0.15734   1.00
Si1      0.50219    0.31249    0.15229   1.00
C6       0.24301    0.29979    0.13574   1.00
C6       0.28674    0.27962    0.17541   1.00
C6       0.27733    0.40368    0.16678   1.00
C6       0.57436    0.38424    0.14189   1.00
C6       0.52891    0.27024    0.16906   1.00
C6       0.45389    0.25493    0.13290   1.00
C6       0.26324    0.34389    0.11591   1.00
H2       0.25510    0.25958    0.13273   1.00
C6       0.16310    0.26301    0.13671   1.00
H2       0.32164    0.26407    0.16928   1.00
C6       0.31178    0.30454    0.19753   1.00
C6       0.21674    0.21223    0.17791   1.00
H2       0.29188    0.43877    0.15394   1.00
C6       0.20152    0.38199    0.17182   1.00
C6       0.31870    0.44751    0.18559   1.00
C6       0.56234    0.43307    0.12792   1.00
C6       0.63593    0.43113    0.15598   1.00
H2       0.59519    0.36068    0.13191   1.00
H2       0.56087    0.30957    0.17997   1.00
C6       0.47158    0.21144    0.18195   1.00
C6       0.57365    0.24168    0.16015   1.00
H2       0.43085    0.20507    0.14024   1.00
C6       0.39259    0.26072    0.12455   1.00
C6       0.49266    0.24994    0.11389   1.00
H2       0.31671    0.36342    0.11199   1.00
H2       0.25519    0.38738    0.11758   1.00
H2       0.23318    0.31374    0.10294   1.00
H2       0.14084    0.21901    0.12652   1.00
H2       0.14307    0.24465    0.15181   1.00
H2       0.14354    0.29609    0.13182   1.00
H2       0.31866    0.26665    0.20587   1.00
H2       0.36088    0.35145    0.19780   1.00
H2       0.27489    0.31274    0.20590   1.00
H2       0.19909    0.18501    0.16355   1.00
H2       0.22086    0.17703    0.18841   1.00
H2       0.17782    0.22261    0.18387   1.00
H2       0.17888    0.33841    0.18213   1.00
H2       0.19714    0.42338    0.17888   1.00
H2       0.17073    0.36914    0.15815   1.00
H2       0.29472    0.42329    0.19993   1.00
H2       0.37069    0.45745    0.18613   1.00
H2       0.32152    0.49716    0.18524   1.00
H2       0.55559    0.47000    0.13671   1.00
H2       0.60627    0.46209    0.11800   1.00
H2       0.51803    0.40545    0.11816   1.00
H2       0.67989    0.46704    0.14696   1.00
H2       0.62406    0.46135    0.16626   1.00
H2       0.65296    0.40206    0.16499   1.00
H2       0.49397    0.19640    0.19419   1.00
H2       0.43845    0.22764    0.18910   1.00
H2       0.43984    0.16627    0.17282   1.00
H2       0.61646    0.28013    0.15135   1.00
H2       0.59521    0.22569    0.17239   1.00
H2       0.54366    0.19735    0.15049   1.00
H2       0.40892    0.30999    0.11743   1.00
H2       0.36303    0.22079    0.11348   1.00
H2       0.35819    0.25468    0.13687   1.00
H2       0.45898    0.20574    0.10459   1.00
H2       0.51166    0.29526    0.10433   1.00
H2       0.53575    0.24377    0.11820   1.00
C4       0.63642    0.80655    0.66423   1.00
C4       0.68951    0.83368    0.64936   1.00
C3       0.59462    0.83522    0.66863   1.00
C3       0.71018    0.89558    0.63876   1.00
C3       0.62468    0.74809    0.67565   1.00
C3       0.72417    0.79729    0.64466   1.00
C2       0.53236    0.75069    0.69523   1.00
C2       0.79839    0.88594    0.61984   1.00
C3       0.54428    0.80834    0.68377   1.00
C3       0.76268    0.92070    0.62426   1.00
C3       0.57279    0.72097    0.69060   1.00
C3       0.77887    0.82496    0.63065   1.00
H1       0.59937    0.87634    0.66091   1.00
H1       0.68799    0.92446    0.64133   1.00
C5       0.66466    0.71693    0.67200   1.00
C5       0.70456    0.73385    0.65408   1.00
H1       0.51595    0.83152    0.68638   1.00
H1       0.77505    0.96543    0.61694   1.00
H1       0.56369    0.67790    0.69828   1.00
H1       0.80601    0.80053    0.62841   1.00
O3       0.66108    0.66806    0.68520   1.00
O3       0.72770    0.69163    0.64694   1.00
Si1      0.71541    0.69020    0.70389   1.00
Si1      0.68698    0.63963    0.62830   1.00
C6       0.67661    0.61053    0.71634   1.00
C6       0.79482    0.70978    0.69343   1.00
C6       0.71695    0.75425    0.71953   1.00
C6       0.61670    0.64197    0.61751   1.00
C6       0.75062    0.66214    0.60984   1.00
C6       0.66192    0.55658    0.63676   1.00
C6       0.59751    0.57550    0.71945   1.00
H2       0.68394    0.57843    0.70545   1.00
C6       0.70532    0.60098    0.73700   1.00
H2       0.77954    0.67999    0.67946   1.00
C6       0.84490    0.78504    0.68683   1.00
C6       0.84007    0.68679    0.70513   1.00
H2       0.66271    0.73505    0.72220   1.00
C6       0.75034    0.76439    0.74101   1.00
C6       0.74719    0.82875    0.71107   1.00
C6       0.55649    0.62973    0.63180   1.00
C6       0.62947    0.70251    0.60322   1.00
H2       0.59554    0.59805    0.60735   1.00
H2       0.76112    0.71224    0.60467   1.00
C6       0.82064    0.67268    0.61757   1.00
C6       0.73176    0.61616    0.59052   1.00
H2       0.70773    0.55257    0.63500   1.00
C6       0.64278    0.54171    0.65964   1.00
C6       0.60429    0.49499    0.62477   1.00
H2       0.57106    0.56964    0.70509   1.00
H2       0.58439    0.60514    0.72970   1.00
H2       0.57684    0.52435    0.72582   1.00
H2       0.69776    0.54944    0.73796   1.00
H2       0.75950    0.63651    0.73891   1.00
H2       0.67917    0.60705    0.75007   1.00
H2       0.88470    0.78756    0.67685   1.00
H2       0.81916    0.80682    0.67833   1.00
H2       0.87010    0.81743    0.69993   1.00
H2       0.81253    0.63196    0.70794   1.00
H2       0.88528    0.69730    0.69633   1.00
H2       0.85759    0.71361    0.71958   1.00
H2       0.80196    0.77240    0.73988   1.00
H2       0.75330    0.80810    0.74903   1.00
H2       0.72019    0.72083    0.75077   1.00
H2       0.80221    0.85923    0.71337   1.00
H2       0.73801    0.83062    0.69502   1.00
H2       0.72420    0.85487    0.71892   1.00
H2       0.56668    0.67621    0.63965   1.00
H2       0.50970    0.61268    0.62304   1.00
H2       0.54574    0.59066    0.64313   1.00
H2       0.58228    0.69185    0.59557   1.00
H2       0.64750    0.75009    0.61146   1.00
H2       0.66611    0.71082    0.59126   1.00
H2       0.85986    0.69755    0.60591   1.00
H2       0.83837    0.70560    0.63094   1.00
H2       0.81781    0.62448    0.62144   1.00
H2       0.68425    0.60767    0.58368   1.00
H2       0.77150    0.64059    0.57897   1.00
H2       0.72681    0.56672    0.59399   1.00
H2       0.59871    0.54670    0.66357   1.00
H2       0.63178    0.49058    0.66391   1.00
H2       0.68531    0.57742    0.66894   1.00
H2       0.60077    0.44702    0.62949   1.00
H2       0.55452    0.49047    0.62737   1.00
H2       0.61411    0.49974    0.60850   1.00
C4       0.17028    0.36057    0.66515   1.00
C4       0.14352    0.30774    0.65021   1.00
C3       0.21527    0.36520    0.68087   1.00
C3       0.15407    0.25098    0.65057   1.00
C3       0.15047    0.41131    0.66469   1.00
C3       0.10408    0.31135    0.63387   1.00
C2       0.21946    0.46705    0.69541   1.00
C2       0.08640    0.20220    0.61966   1.00
C3       0.23889    0.41672    0.69566   1.00
C3       0.12685    0.19997    0.63562   1.00
C3       0.17588    0.46361    0.67952   1.00
C3       0.07468    0.25794    0.61945   1.00
H1       0.23237    0.33142    0.68200   1.00
H1       0.18147    0.24478    0.66177   1.00
C5       0.10564    0.40966    0.64937   1.00
C5       0.09362    0.36783    0.63209   1.00
H1       0.27094    0.41720    0.70675   1.00
H1       0.13663    0.16041    0.63656   1.00
H1       0.16274    0.50074    0.67867   1.00
H1       0.04300    0.25908    0.60860   1.00
O3       0.07778    0.45141    0.65092   1.00
O3       0.06760    0.37921    0.61449   1.00
Si1      0.00324    0.42287    0.66154   1.00
Si1      0.11972    0.42044    0.59591   1.00
C6       0.00377    0.50107    0.66204   1.00
C6       -0.05853   0.36499    0.64447   1.00
C6       -0.00132   0.39093    0.68627   1.00
C6       0.20688    0.44604    0.59890   1.00
C6       0.08568    0.36315    0.57553   1.00
C6       0.11059    0.49159    0.59041   1.00
C6       0.07076    0.56401    0.67019   1.00
H2       0.00186    0.51117    0.64593   1.00
C6       -0.05611   0.50664    0.67210   1.00
H2       -0.03249   0.38257    0.62993   1.00
C6       -0.07974   0.28793    0.64598   1.00
C6       -0.12711   0.36541    0.64214   1.00
H2       0.04524    0.43134    0.69323   1.00
C6       -0.06154   0.38208    0.70009   1.00
C6       0.00009    0.32279    0.68929   1.00
C6       0.24590    0.49235    0.61742   1.00
C6       0.23008    0.39160    0.59731   1.00
H2       0.22984    0.47806    0.58556   1.00
H2       0.09600    0.32243    0.57954   1.00
C6       0.00653    0.32739    0.57268   1.00
C6       0.11802    0.38946    0.55414   1.00
H2       0.06491    0.47082    0.58097   1.00
C6       0.09525    0.52522    0.60877   1.00
C6       0.16839    0.55149    0.57794   1.00
H2       0.11550    0.57134    0.66179   1.00
H2       0.07878    0.55788    0.68622   1.00
H2       0.06894    0.61112    0.66855   1.00
H2       -0.06417   0.54415    0.66400   1.00
H2       -0.10415   0.45870    0.67199   1.00
H2       -0.04517   0.52385    0.68784   1.00
H2       -0.10638   0.26057    0.63222   1.00
H2       -0.03581   0.28089    0.64753   1.00
H2       -0.11403   0.26330    0.65876   1.00
H2       -0.11813   0.41593    0.63803   1.00
H2       -0.15862   0.33104    0.63003   1.00
H2       -0.15691   0.34896    0.65613   1.00
H2       -0.11064   0.35115    0.69259   1.00
H2       -0.06302   0.35765    0.71455   1.00
H2       -0.05605   0.43108    0.70413   1.00
H2       -0.05077   0.27795    0.68838   1.00
H2       0.03160    0.31568    0.67832   1.00
H2       0.02045    0.32218    0.70429   1.00
H2       0.23802    0.46253    0.63114   1.00
H2       0.30079    0.52038    0.61451   1.00
H2       0.23066    0.53007    0.62051   1.00
H2       0.28571    0.41641    0.59659   1.00
H2       0.21394    0.35751    0.61032   1.00
H2       0.21096    0.36075    0.58360   1.00
H2       -0.01095   0.28481    0.56203   1.00
H2       -0.02032   0.30621    0.58696   1.00
H2       -0.00935   0.36233    0.56679   1.00
H2       0.17348    0.41355    0.55455   1.00
H2       0.09973    0.34698    0.54342   1.00
H2       0.10448    0.42597    0.54803   1.00
H2       0.13653    0.54591    0.61984   1.00
H2       0.08637    0.56626    0.60392   1.00
H2       0.04926    0.48758    0.61642   1.00
H2       0.15212    0.58715    0.57289   1.00
H2       0.21460    0.58021    0.58700   1.00
H2       0.18154    0.53315    0.56434   1.00
C4       0.19039    0.82961    0.66509   1.00
C4       0.16425    0.85634    0.65015   1.00
C3       0.14939    0.78189    0.68018   1.00
C3       0.09589    0.84285    0.64994   1.00
C3       0.26163    0.85229    0.66529   1.00
C3       0.20835    0.89885    0.63443   1.00
C2       0.24768    0.78058    0.69539   1.00
C2       0.11569    0.91356    0.61968   1.00
C3       0.17725    0.75832    0.69498   1.00
C3       0.07207    0.87014    0.63503   1.00
C3       0.28854    0.82692    0.68012   1.00
C3       0.18413    0.92818    0.62005   1.00
H1       0.09804    0.76269    0.68081   1.00
H1       0.06151    0.81316    0.66070   1.00
C5       0.30547    0.89994    0.65062   1.00
C5       0.27651    0.91241    0.63321   1.00
H1       0.14517    0.72421    0.70561   1.00
H1       0.02198    0.85816    0.63553   1.00
H1       0.33942    0.84220    0.67973   1.00
H1       0.21748    0.96197    0.60968   1.00
O3       0.37512    0.93017    0.65287   1.00
O3       0.31561    0.94173    0.61609   1.00
Si1      0.41731    1.00369    0.66435   1.00
Si1      0.30920    0.89272    0.59708   1.00
C6       0.49669    1.00675    0.66542   1.00
C6       0.42040    1.06623    0.64776   1.00
C6       0.38613    1.00376    0.68889   1.00
C6       0.25008    0.80447    0.59899   1.00
C6       0.28625    0.92735    0.57679   1.00
C6       0.39150    0.90606    0.59223   1.00
C6       0.49477    0.94023    0.67306   1.00
H2       0.51082    1.01118    0.64942   1.00
C6       0.55953    1.06695    0.67638   1.00
H2       0.41474    1.04225    0.63298   1.00
C6       0.36209    1.08410    0.64901   1.00
C6       0.48794    1.13661    0.64643   1.00
H2       0.38122    0.95721    0.69547   1.00
C6       0.43410    1.06316    0.70350   1.00
C6       0.31472    0.99875    0.69139   1.00
C6       0.25717    0.76446    0.61727   1.00
C6       0.17199    0.77841    0.59666   1.00
H2       0.26203    0.78417    0.58557   1.00
H2       0.23408    0.91439    0.58034   1.00
C6       0.32718    1.00692    0.57481   1.00
C6       0.28421    0.89821    0.55513   1.00
H2       0.41592    0.95295    0.58331   1.00
C6       0.43863    0.92103    0.61104   1.00
C6       0.39791    0.85137    0.57938   1.00
H2       0.45967    0.89589    0.66407   1.00
H2       0.47876    0.92975    0.68891   1.00
H2       0.54490    0.94450    0.67179   1.00
H2       0.60672    1.07796    0.66867   1.00
H2       0.55735    1.11381    0.67661   1.00
H2       0.56457    1.05462    0.69207   1.00
H2       0.36174    1.11175    0.63545   1.00
H2       0.31190    1.03868    0.64988   1.00
H2       0.36879    1.11639    0.66209   1.00
H2       0.53133    1.13032    0.64256   1.00
H2       0.48497    1.16872    0.63453   1.00
H2       0.49849    1.16456    0.66071   1.00
H2       0.45125    1.11283    0.69649   1.00
H2       0.40883    1.06173    0.71779   1.00
H2       0.47837    1.05935    0.70782   1.00
H2       0.31856    1.04873    0.69088   1.00
H2       0.27806    0.96758    0.67992   1.00
H2       0.29245    0.97604    0.70607   1.00
H2       0.23270    0.76941    0.63088   1.00
H2       0.23267    0.71004    0.61378   1.00
H2       0.31020    0.78142    0.62086   1.00
H2       0.14323    0.72281    0.59533   1.00
H2       0.15130    0.79168    0.60965   1.00
H2       0.16074    0.79820    0.58302   1.00
H2       0.30196    1.02411    0.56412   1.00
H2       0.32998    1.03158    0.58932   1.00
H2       0.37909    1.02552    0.56942   1.00
H2       0.25474    0.84261    0.55492   1.00
H2       0.25990    0.91624    0.54438   1.00
H2       0.33547    0.91452    0.54950   1.00
H2       0.41822    0.87844    0.62167   1.00
H2       0.48983    0.93264    0.60663   1.00
H2       0.44405    0.96532    0.61908   1.00
H2       0.45084    0.87029    0.57483   1.00
H2       0.38115    0.80435    0.58797   1.00
H2       0.36798    0.83876    0.56547   1.00
