data_IRMOF10_interpen_symm_ligand3cp_label_b_1.

_audit_creation_method             'generated by an auxiliary program of Tobunporous'

_symmetry_space_group_name_H-M     'P 1'
_symmetry_Int_Tables_number        1
_symmetry_cell_setting             triclinic

_cell_length_a                    22.6523
_cell_length_b                    22.6523
_cell_length_c                    65.9502
_cell_angle_alpha                 90.0000
_cell_angle_beta                  90.0000
_cell_angle_gamma                 120.0000

loop_
_atom_site_label
_atom_site_fract_x
_atom_site_fract_y
_atom_site_fract_z
_atom_site_occupancy
O1       0.00000    0.00000    0.57470   1.00
Zn1      0.00000    0.00000    0.54560   1.00
Zn1      0.94843    0.04287    0.58357   1.00
Zn1      0.09443    0.05157    0.58357   1.00
Zn1      0.95713    0.90557    0.58357   1.00
O2       0.93860    0.02610    0.53560   1.00
O2       0.08750    0.06140    0.53560   1.00
O2       0.97390    0.91250    0.53560   1.00
O2       0.91300    0.07160    0.56150   1.00
O2       0.00463    0.12027    0.60077   1.00
O2       0.87413    0.98077    0.60037   1.00
O2       0.15860    0.08700    0.56150   1.00
O2       0.10663    0.12587    0.60037   1.00
O2       0.11563    0.99537    0.60077   1.00
O2       0.92840    0.84140    0.56150   1.00
O2       0.87973    0.88437    0.60077   1.00
O2       0.01923    0.89337    0.60037   1.00
C1       0.91390    0.06020    0.54330   1.00
C1       0.14630    0.08610    0.54330   1.00
C1       0.93980    0.85370    0.54330   1.00
C1       0.06663    0.14397    0.60637   1.00
C1       0.85603    0.92267    0.60637   1.00
C1       0.07733    0.93337    0.60637   1.00
O1       0.00000    0.00000    0.92530   1.00
Zn1      0.00000    0.00000    0.95440   1.00
Zn1      0.04287    0.94843    0.91643   1.00
Zn1      0.05157    0.09443    0.91643   1.00
Zn1      0.90557    0.95713    0.91643   1.00
O2       0.02610    0.93860    0.96440   1.00
O2       0.06140    0.08750    0.96440   1.00
O2       0.91250    0.97390    0.96440   1.00
O2       0.07160    0.91300    0.93850   1.00
O2       0.12027    0.00463    0.89923   1.00
O2       0.98077    0.87413    0.89963   1.00
O2       0.08700    0.15860    0.93850   1.00
O2       0.12587    0.10663    0.89963   1.00
O2       0.99537    0.11563    0.89923   1.00
O2       0.84140    0.92840    0.93850   1.00
O2       0.88437    0.87973    0.89923   1.00
O2       0.89337    0.01923    0.89963   1.00
C1       0.06020    0.91390    0.95670   1.00
C1       0.08610    0.14630    0.95670   1.00
C1       0.85370    0.93980    0.95670   1.00
C1       0.14397    0.06663    0.89363   1.00
C1       0.92267    0.85603    0.89363   1.00
C1       0.93337    0.07733    0.89363   1.00
O1       0.00000    0.00000    0.42530   1.00
Zn1      0.00000    0.00000    0.45440   1.00
Zn1      0.05157    0.95713    0.41643   1.00
Zn1      0.90557    0.94843    0.41643   1.00
Zn1      0.04287    0.09443    0.41643   1.00
O2       0.06140    0.97390    0.46440   1.00
O2       0.91250    0.93860    0.46440   1.00
O2       0.02610    0.08750    0.46440   1.00
O2       0.08700    0.92840    0.43850   1.00
O2       0.99537    0.87973    0.39923   1.00
O2       0.12587    0.01923    0.39963   1.00
O2       0.84140    0.91300    0.43850   1.00
O2       0.89337    0.87413    0.39963   1.00
O2       0.88437    0.00463    0.39923   1.00
O2       0.07160    0.15860    0.43850   1.00
O2       0.12027    0.11563    0.39923   1.00
O2       0.98077    0.10663    0.39963   1.00
C1       0.08610    0.93980    0.45670   1.00
C1       0.85370    0.91390    0.45670   1.00
C1       0.06020    0.14630    0.45670   1.00
C1       0.93337    0.85603    0.39363   1.00
C1       0.14397    0.07733    0.39363   1.00
C1       0.92267    0.06663    0.39363   1.00
O1       0.00000    0.00000    0.07470   1.00
Zn1      0.00000    0.00000    0.04560   1.00
Zn1      0.95713    0.05157    0.08357   1.00
Zn1      0.94843    0.90557    0.08357   1.00
Zn1      0.09443    0.04287    0.08357   1.00
O2       0.97390    0.06140    0.03560   1.00
O2       0.93860    0.91250    0.03560   1.00
O2       0.08750    0.02610    0.03560   1.00
O2       0.92840    0.08700    0.06150   1.00
O2       0.87973    0.99537    0.10077   1.00
O2       0.01923    0.12587    0.10037   1.00
O2       0.91300    0.84140    0.06150   1.00
O2       0.87413    0.89337    0.10037   1.00
O2       0.00463    0.88437    0.10077   1.00
O2       0.15860    0.07160    0.06150   1.00
O2       0.11563    0.12027    0.10077   1.00
O2       0.10663    0.98077    0.10037   1.00
C1       0.93980    0.08610    0.04330   1.00
C1       0.91390    0.85370    0.04330   1.00
C1       0.14630    0.06020    0.04330   1.00
C1       0.85603    0.93337    0.10637   1.00
C1       0.07733    0.14397    0.10637   1.00
C1       0.06663    0.92267    0.10637   1.00
O1       0.66667    0.33333    0.90803   1.00
Zn1      0.66667    0.33333    0.87893   1.00
Zn1      0.61510    0.37620    0.91690   1.00
Zn1      0.76110    0.38490    0.91690   1.00
Zn1      0.62380    0.23890    0.91690   1.00
O2       0.60527    0.35943    0.86893   1.00
O2       0.75417    0.39473    0.86893   1.00
O2       0.64057    0.24583    0.86893   1.00
O2       0.57967    0.40493    0.89483   1.00
O2       0.67130    0.45360    0.93410   1.00
O2       0.54080    0.31410    0.93370   1.00
O2       0.82527    0.42033    0.89483   1.00
O2       0.77330    0.45920    0.93370   1.00
O2       0.78230    0.32870    0.93410   1.00
O2       0.59507    0.17473    0.89483   1.00
O2       0.54640    0.21770    0.93410   1.00
O2       0.68590    0.22670    0.93370   1.00
C1       0.58057    0.39353    0.87663   1.00
C1       0.81297    0.41943    0.87663   1.00
C1       0.60647    0.18703    0.87663   1.00
C1       0.73330    0.47730    0.93970   1.00
C1       0.52270    0.25600    0.93970   1.00
C1       0.74400    0.26670    0.93970   1.00
O1       0.66667    0.33333    0.25863   1.00
Zn1      0.66667    0.33333    0.28773   1.00
Zn1      0.70953    0.28177    0.24977   1.00
Zn1      0.71823    0.42777    0.24977   1.00
Zn1      0.57223    0.29047    0.24977   1.00
O2       0.69277    0.27193    0.29773   1.00
O2       0.72807    0.42083    0.29773   1.00
O2       0.57917    0.30723    0.29773   1.00
O2       0.73827    0.24633    0.27183   1.00
O2       0.78693    0.33797    0.23257   1.00
O2       0.64743    0.20747    0.23297   1.00
O2       0.75367    0.49193    0.27183   1.00
O2       0.79253    0.43997    0.23297   1.00
O2       0.66203    0.44897    0.23257   1.00
O2       0.50807    0.26173    0.27183   1.00
O2       0.55103    0.21307    0.23257   1.00
O2       0.56003    0.35257    0.23297   1.00
C1       0.72687    0.24723    0.29003   1.00
C1       0.75277    0.47963    0.29003   1.00
C1       0.52037    0.27313    0.29003   1.00
C1       0.81063    0.39997    0.22697   1.00
C1       0.58933    0.18937    0.22697   1.00
C1       0.60003    0.41067    0.22697   1.00
O1       0.66667    0.33333    0.75863   1.00
Zn1      0.66667    0.33333    0.78773   1.00
Zn1      0.71823    0.29047    0.74977   1.00
Zn1      0.57223    0.28177    0.74977   1.00
Zn1      0.70953    0.42777    0.74977   1.00
O2       0.72807    0.30723    0.79773   1.00
O2       0.57917    0.27193    0.79773   1.00
O2       0.69277    0.42083    0.79773   1.00
O2       0.75367    0.26173    0.77183   1.00
O2       0.66203    0.21307    0.73257   1.00
O2       0.79253    0.35257    0.73297   1.00
O2       0.50807    0.24633    0.77183   1.00
O2       0.56003    0.20747    0.73297   1.00
O2       0.55103    0.33797    0.73257   1.00
O2       0.73827    0.49193    0.77183   1.00
O2       0.78693    0.44897    0.73257   1.00
O2       0.64743    0.43997    0.73297   1.00
C1       0.75277    0.27313    0.79003   1.00
C1       0.52037    0.24723    0.79003   1.00
C1       0.72687    0.47963    0.79003   1.00
C1       0.60003    0.18937    0.72697   1.00
C1       0.81063    0.41067    0.72697   1.00
C1       0.58933    0.39997    0.72697   1.00
O1       0.66667    0.33333    0.40803   1.00
Zn1      0.66667    0.33333    0.37893   1.00
Zn1      0.62380    0.38490    0.41690   1.00
Zn1      0.61510    0.23890    0.41690   1.00
Zn1      0.76110    0.37620    0.41690   1.00
O2       0.64057    0.39473    0.36893   1.00
O2       0.60527    0.24583    0.36893   1.00
O2       0.75417    0.35943    0.36893   1.00
O2       0.59507    0.42033    0.39483   1.00
O2       0.54640    0.32870    0.43410   1.00
O2       0.68590    0.45920    0.43370   1.00
O2       0.57967    0.17473    0.39483   1.00
O2       0.54080    0.22670    0.43370   1.00
O2       0.67130    0.21770    0.43410   1.00
O2       0.82527    0.40493    0.39483   1.00
O2       0.78230    0.45360    0.43410   1.00
O2       0.77330    0.31410    0.43370   1.00
C1       0.60647    0.41943    0.37663   1.00
C1       0.58057    0.18703    0.37663   1.00
C1       0.81297    0.39353    0.37663   1.00
C1       0.52270    0.26670    0.43970   1.00
C1       0.74400    0.47730    0.43970   1.00
C1       0.73330    0.25600    0.43970   1.00
O1       0.33333    0.66667    0.24137   1.00
Zn1      0.33333    0.66667    0.21227   1.00
Zn1      0.28177    0.70953    0.25023   1.00
Zn1      0.42777    0.71823    0.25023   1.00
Zn1      0.29047    0.57223    0.25023   1.00
O2       0.27193    0.69277    0.20227   1.00
O2       0.42083    0.72807    0.20227   1.00
O2       0.30723    0.57917    0.20227   1.00
O2       0.24633    0.73827    0.22817   1.00
O2       0.33797    0.78693    0.26743   1.00
O2       0.20747    0.64743    0.26703   1.00
O2       0.49193    0.75367    0.22817   1.00
O2       0.43997    0.79253    0.26703   1.00
O2       0.44897    0.66203    0.26743   1.00
O2       0.26173    0.50807    0.22817   1.00
O2       0.21307    0.55103    0.26743   1.00
O2       0.35257    0.56003    0.26703   1.00
C1       0.24723    0.72687    0.20997   1.00
C1       0.47963    0.75277    0.20997   1.00
C1       0.27313    0.52037    0.20997   1.00
C1       0.39997    0.81063    0.27303   1.00
C1       0.18937    0.58933    0.27303   1.00
C1       0.41067    0.60003    0.27303   1.00
O1       0.33333    0.66667    0.59197   1.00
Zn1      0.33333    0.66667    0.62107   1.00
Zn1      0.37620    0.61510    0.58310   1.00
Zn1      0.38490    0.76110    0.58310   1.00
Zn1      0.23890    0.62380    0.58310   1.00
O2       0.35943    0.60527    0.63107   1.00
O2       0.39473    0.75417    0.63107   1.00
O2       0.24583    0.64057    0.63107   1.00
O2       0.40493    0.57967    0.60517   1.00
O2       0.45360    0.67130    0.56590   1.00
O2       0.31410    0.54080    0.56630   1.00
O2       0.42033    0.82527    0.60517   1.00
O2       0.45920    0.77330    0.56630   1.00
O2       0.32870    0.78230    0.56590   1.00
O2       0.17473    0.59507    0.60517   1.00
O2       0.21770    0.54640    0.56590   1.00
O2       0.22670    0.68590    0.56630   1.00
C1       0.39353    0.58057    0.62337   1.00
C1       0.41943    0.81297    0.62337   1.00
C1       0.18703    0.60647    0.62337   1.00
C1       0.47730    0.73330    0.56030   1.00
C1       0.25600    0.52270    0.56030   1.00
C1       0.26670    0.74400    0.56030   1.00
O1       0.33333    0.66667    0.09197   1.00
Zn1      0.33333    0.66667    0.12107   1.00
Zn1      0.38490    0.62380    0.08310   1.00
Zn1      0.23890    0.61510    0.08310   1.00
Zn1      0.37620    0.76110    0.08310   1.00
O2       0.39473    0.64057    0.13107   1.00
O2       0.24583    0.60527    0.13107   1.00
O2       0.35943    0.75417    0.13107   1.00
O2       0.42033    0.59507    0.10517   1.00
O2       0.32870    0.54640    0.06590   1.00
O2       0.45920    0.68590    0.06630   1.00
O2       0.17473    0.57967    0.10517   1.00
O2       0.22670    0.54080    0.06630   1.00
O2       0.21770    0.67130    0.06590   1.00
O2       0.40493    0.82527    0.10517   1.00
O2       0.45360    0.78230    0.06590   1.00
O2       0.31410    0.77330    0.06630   1.00
C1       0.41943    0.60647    0.12337   1.00
C1       0.18703    0.58057    0.12337   1.00
C1       0.39353    0.81297    0.12337   1.00
C1       0.26670    0.52270    0.06030   1.00
C1       0.47730    0.74400    0.06030   1.00
C1       0.25600    0.73330    0.06030   1.00
O1       0.33333    0.66667    0.74137   1.00
Zn1      0.33333    0.66667    0.71227   1.00
Zn1      0.29047    0.71823    0.75023   1.00
Zn1      0.28177    0.57223    0.75023   1.00
Zn1      0.42777    0.70953    0.75023   1.00
O2       0.30723    0.72807    0.70227   1.00
O2       0.27193    0.57917    0.70227   1.00
O2       0.42083    0.69277    0.70227   1.00
O2       0.26173    0.75367    0.72817   1.00
O2       0.21307    0.66203    0.76743   1.00
O2       0.35257    0.79253    0.76703   1.00
O2       0.24633    0.50807    0.72817   1.00
O2       0.20747    0.56003    0.76703   1.00
O2       0.33797    0.55103    0.76743   1.00
O2       0.49193    0.73827    0.72817   1.00
O2       0.44897    0.78693    0.76743   1.00
O2       0.43997    0.64743    0.76703   1.00
C1       0.27313    0.75277    0.70997   1.00
C1       0.24723    0.52037    0.70997   1.00
C1       0.47963    0.72687    0.70997   1.00
C1       0.18937    0.60003    0.77303   1.00
C1       0.41067    0.81063    0.77303   1.00
C1       0.39997    0.58933    0.77303   1.00
C4       0.86172    0.68778    0.50043   1.00
C4       0.83385    0.63006    0.48718   1.00
C3       0.92957    0.74315    0.49894   1.00
C3       0.87275    0.61899    0.47234   1.00
C3       0.82022    0.69032    0.51632   1.00
C3       0.76315    0.58034    0.48866   1.00
C2       0.91534    0.80101    0.52845   1.00
C2       0.77406    0.51125    0.46126   1.00
C3       0.95581    0.79803    0.51262   1.00
C3       0.84358    0.56156    0.45960   1.00
C3       0.84724    0.74676    0.52973   1.00
C3       0.73542    0.52139    0.47628   1.00
H1       0.96185    0.74534    0.48783   1.00
H1       0.92351    0.65210    0.47043   1.00
C5       0.75191    0.63663    0.51865   1.00
C5       0.72060    0.58931    0.50259   1.00
H1       1.00542    0.83639    0.51089   1.00
H1       0.87405    0.55653    0.44903   1.00
H1       0.81629    0.74881    0.54070   1.00
H1       0.68581    0.48418    0.47841   1.00
O3       0.71590    0.63357    0.53584   1.00
O3       0.65040    0.54959    0.50152   1.00
Si1      0.71496    0.58824    0.55524   1.00
Si1      0.60891    0.57212    0.48606   1.00
C6       0.67334    0.61532    0.57236   1.00
C6       0.66263    0.50166    0.54875   1.00
C6       0.79724    0.61048    0.56396   1.00
C6       0.65629    0.64496    0.47071   1.00
C6       0.56424    0.50002    0.47056   1.00
C6       0.54890    0.58146    0.50064   1.00
C6       0.70175    0.69418    0.57337   1.00
H2       0.62267    0.59391    0.56562   1.00
C6       0.66095    0.59059    0.59501   1.00
H2       0.62923    0.50427    0.53729   1.00
C6       0.69642    0.46366    0.53842   1.00
C6       0.61400    0.45122    0.56530   1.00
H2       0.82237    0.66607    0.56470   1.00
C6       0.80286    0.58619    0.58577   1.00
C6       0.84408    0.59321    0.55058   1.00
C6       0.70503    0.71414    0.48145   1.00
C6       0.69634    0.64053    0.45194   1.00
H2       0.61631    0.65200    0.46389   1.00
H2       0.60403    0.49941    0.46138   1.00
C6       0.52773    0.42950    0.48170   1.00
C6       0.51119    0.49988    0.45534   1.00
H2       0.50668    0.52939    0.50249   1.00
C6       0.57088    0.60879    0.52266   1.00
C6       0.51719    0.62300    0.49133   1.00
H2       0.70222    0.71519    0.55842   1.00
H2       0.75375    0.72099    0.57933   1.00
H2       0.67007    0.70620    0.58310   1.00
H2       0.61314    0.58570    0.60050   1.00
H2       0.65774    0.54144    0.59703   1.00
H2       0.70100    0.62673    0.60510   1.00
H2       0.65775    0.41622    0.53137   1.00
H2       0.73149    0.49382    0.52639   1.00
H2       0.72387    0.45048    0.54947   1.00
H2       0.58032    0.46819    0.57152   1.00
H2       0.58071    0.40048    0.55894   1.00
H2       0.64295    0.44559    0.57765   1.00
H2       0.76945    0.53121    0.58743   1.00
H2       0.85490    0.59810    0.58931   1.00
H2       0.79010    0.61212    0.59733   1.00
H2       0.83523    0.54198    0.55353   1.00
H2       0.83745    0.59657    0.53443   1.00
H2       0.89776    0.62884    0.55393   1.00
H2       0.75412    0.71878    0.48506   1.00
H2       0.71524    0.75701    0.47156   1.00
H2       0.68324    0.72069    0.49540   1.00
H2       0.71476    0.68602    0.44245   1.00
H2       0.74078    0.63703    0.45635   1.00
H2       0.66436    0.59719    0.44220   1.00
H2       0.51160    0.38784    0.47078   1.00
H2       0.56191    0.42476    0.49243   1.00
H2       0.48260    0.42161    0.48996   1.00
H2       0.53297    0.54665    0.44640   1.00
H2       0.49430    0.45758    0.44461   1.00
H2       0.46604    0.49381    0.46321   1.00
H2       0.61492    0.66019    0.52290   1.00
H2       0.52949    0.60925    0.53104   1.00
H2       0.58439    0.57576    0.53093   1.00
H2       0.47370    0.61630    0.50034   1.00
H2       0.55429    0.67753    0.49085   1.00
H2       0.49837    0.60619    0.47598   1.00
C4       0.31868    0.17520    0.50283   1.00
C4       0.37509    0.20316    0.48909   1.00
C3       0.31693    0.14098    0.52107   1.00
C3       0.43259    0.19431    0.49125   1.00
C3       0.26002    0.18053    0.49808   1.00
C3       0.37470    0.24242    0.47221   1.00
C2       0.20131    0.11708    0.52932   1.00
C2       0.48643    0.26006    0.46039   1.00
C3       0.25975    0.11238    0.53389   1.00
C3       0.48704    0.22249    0.47741   1.00
C3       0.20334    0.15245    0.51141   1.00
C3       0.42870    0.26790    0.45796   1.00
H1       0.35725    0.13605    0.52560   1.00
H1       0.43642    0.16678    0.50288   1.00
C5       0.25846    0.21414    0.48009   1.00
C5       0.32024    0.25558    0.46950   1.00
H1       0.26121    0.08779    0.54680   1.00
H1       0.52756    0.21493    0.47984   1.00
H1       0.16239    0.15832    0.50809   1.00
H1       0.42558    0.29216    0.44527   1.00
O3       0.19812    0.20933    0.47386   1.00
O3       0.32508    0.30403    0.45581   1.00
Si1      0.14911    0.14998    0.45781   1.00
Si1      0.36184    0.38363    0.46293   1.00
C6       0.07887    0.16344    0.45923   1.00
C6       0.18872    0.17339    0.43384   1.00
C6       0.12670    0.06702    0.46589   1.00
C6       0.39645    0.40446    0.48767   1.00
C6       0.42738    0.42525    0.44505   1.00
C6       0.30244    0.41133    0.45932   1.00
C6       0.05568    0.16976    0.48115   1.00
H2       0.09947    0.21405    0.45252   1.00
C6       0.01118    0.11651    0.44733   1.00
H2       0.21989    0.22868    0.43528   1.00
C6       0.23910    0.14806    0.42771   1.00
C6       0.14314    0.16086    0.41467   1.00
H2       0.11108    0.06682    0.48159   1.00
C6       0.06441    0.00578    0.45518   1.00
C6       0.18262    0.04526    0.46651   1.00
C6       0.34787    0.36787    0.50599   1.00
C6       0.46481    0.40567    0.49246   1.00
H2       0.41020    0.45789    0.48897   1.00
H2       0.46344    0.40826    0.44881   1.00
C6       0.40737    0.40442    0.42236   1.00
C6       0.46852    0.50495    0.44560   1.00
H2       0.30598    0.42309    0.44316   1.00
C6       0.22607    0.35719    0.46294   1.00
C6       0.31493    0.47744    0.47063   1.00
H2       0.09773    0.20972    0.48985   1.00
H2       0.03613    0.12190    0.48951   1.00
H2       0.01556    0.18319    0.48067   1.00
H2       -0.01248   0.14609    0.44251   1.00
H2       0.01929    0.09393    0.43383   1.00
H2       -0.02647   0.07483    0.45668   1.00
H2       0.27061    0.17724    0.41483   1.00
H2       0.27420    0.15461    0.43992   1.00
H2       0.21161    0.09444    0.42328   1.00
H2       0.11256    0.18559    0.41614   1.00
H2       0.17421    0.18228    0.40103   1.00
H2       0.10931    0.10641    0.41202   1.00
H2       0.07078    0.00870    0.43872   1.00
H2       0.05727    -0.04349   0.46014   1.00
H2       0.01696    0.00431    0.45891   1.00
H2       0.18747    0.02492    0.45199   1.00
H2       0.23287    0.08651    0.47048   1.00
H2       0.16908    0.00517    0.47783   1.00
H2       0.34233    0.31799    0.50889   1.00
H2       0.36826    0.39787    0.51985   1.00
H2       0.29728    0.36118    0.50368   1.00
H2       0.48439    0.42857    0.50733   1.00
H2       0.45846    0.35479    0.49282   1.00
H2       0.50478    0.43620    0.48155   1.00
H2       0.45310    0.42383    0.41292   1.00
H2       0.37933    0.34902    0.42054   1.00
H2       0.37606    0.42446    0.41630   1.00
H2       0.48645    0.52423    0.46086   1.00
H2       0.51371    0.52439    0.43592   1.00
H2       0.43792    0.52664    0.44010   1.00
H2       0.21626    0.33914    0.47858   1.00
H2       0.19240    0.37724    0.45923   1.00
H2       0.21155    0.31341    0.45318   1.00
H2       0.28108    0.49496    0.46480   1.00
H2       0.30542    0.46851    0.48690   1.00
H2       0.36693    0.51930    0.46852   1.00
C4       0.82601    0.14450    0.50276   1.00
C4       0.79787    0.17266    0.48898   1.00
C3       0.87261    0.18261    0.51844   1.00
C3       0.81819    0.24298    0.48831   1.00
C3       0.80770    0.07463    0.50070   1.00
C3       0.74636    0.12856    0.47504   1.00
C2       0.88326    0.08470    0.52937   1.00
C2       0.73960    0.22590    0.46034   1.00
C3       0.90077    0.15369    0.53131   1.00
C3       0.78943    0.26881    0.47452   1.00
C3       0.83568    0.04607    0.51408   1.00
C3       0.72015    0.15606    0.46069   1.00
H1       0.88728    0.23243    0.52101   1.00
H1       0.85478    0.27758    0.49773   1.00
C5       0.76134    0.03366    0.48534   1.00
C5       0.72169    0.05740    0.47534   1.00
H1       0.93460    0.18388    0.54228   1.00
H1       0.80568    0.32002    0.47485   1.00
H1       0.82063    -0.00460   0.51278   1.00
H1       0.68652    0.12452    0.44997   1.00
O3       0.75260    -0.02988   0.48122   1.00
O3       0.66321    0.01253    0.46494   1.00
Si1      0.79772    -0.03867   0.46340   1.00
Si1      0.58936    -0.01441   0.47581   1.00
C6       0.77249    -0.12470   0.46838   1.00
C6       0.76557    -0.02997   0.43993   1.00
C6       0.88647    0.01478    0.46668   1.00
C6       0.58765    0.01759    0.50013   1.00
C6       0.54588    0.00924    0.45853   1.00
C6       0.54792    -0.10413   0.47638   1.00
C6       0.77475    -0.14314   0.49118   1.00
H2       0.71847    -0.15088   0.46437   1.00
C6       0.80376    -0.16209   0.45618   1.00
H2       0.71318    -0.04456   0.44383   1.00
C6       0.79727    0.04277    0.43031   1.00
C6       0.75991    -0.07797   0.42204   1.00
H2       0.89325    0.00678    0.48266   1.00
C6       0.93448    -0.00364   0.45449   1.00
C6       0.91926    0.09393    0.46370   1.00
C6       0.62893    0.00785    0.51754   1.00
C6       0.60070    0.09208    0.50230   1.00
H2       0.53420    -0.01403   0.50444   1.00
H2       0.57213    0.06470    0.45971   1.00
C6       0.55124    -0.00607   0.43565   1.00
C6       0.46880    -0.01668   0.46278   1.00
H2       0.52660    -0.11944   0.46117   1.00
C6       0.59446    -0.13605   0.47925   1.00
C6       0.48671    -0.14283   0.49139   1.00
H2       0.74466    -0.12870   0.50077   1.00
H2       0.82699    -0.11738   0.49696   1.00
H2       0.75350    -0.19803   0.49315   1.00
H2       0.76565    -0.21599   0.45432   1.00
H2       0.82110    -0.14089   0.44113   1.00
H2       0.84700    -0.16055   0.46402   1.00
H2       0.76414    0.04374    0.41840   1.00
H2       0.80341    0.08108    0.44138   1.00
H2       0.84677    0.05820    0.42345   1.00
H2       0.72945    -0.13157   0.42629   1.00
H2       0.73448    -0.07105   0.40889   1.00
H2       0.81027    -0.06761   0.41711   1.00
H2       0.92282    -0.00831   0.43829   1.00
H2       0.98832    0.03479    0.45635   1.00
H2       0.93023    -0.05095   0.45986   1.00
H2       0.93309    0.10914    0.44792   1.00
H2       0.88642    0.11342    0.46841   1.00
H2       0.96604    0.12088    0.47266   1.00
H2       0.68247    0.04740    0.51728   1.00
H2       0.60875    0.01073    0.53234   1.00
H2       0.62613    -0.04149   0.51676   1.00
H2       0.58849    0.10088    0.51766   1.00
H2       0.65367    0.13027    0.49951   1.00
H2       0.56874    0.10197    0.49209   1.00
H2       0.53287    0.02053    0.42593   1.00
H2       0.60407    0.01175    0.43126   1.00
H2       0.52121    -0.06041   0.43223   1.00
H2       0.46038    -0.00624   0.47835   1.00
H2       0.45017    0.00921    0.45285   1.00
H2       0.43748    -0.07139   0.46000   1.00
H2       0.62107    -0.12218   0.49377   1.00
H2       0.56540    -0.19163   0.47824   1.00
H2       0.63262    -0.11831   0.46733   1.00
H2       0.45906    -0.19753   0.48813   1.00
H2       0.50410    -0.13632   0.50712   1.00
H2       0.44995    -0.12531   0.49011   1.00
C4       0.68774    0.86185    -0.00045   1.00
C4       0.63002    0.83394    0.01280   1.00
C3       0.74218    0.93027    0.00069   1.00
C3       0.61793    0.87319    0.02726   1.00
C3       0.69127    0.81974    -0.01596   1.00
C3       0.58136    0.76283    0.01172   1.00
C2       0.80103    0.91540    -0.02844   1.00
C2       0.51123    0.77400    0.03873   1.00
C3       0.79708    0.95646    -0.01298   1.00
C3       0.56052    0.84397    0.04000   1.00
C3       0.74773    0.84677    -0.02937   1.00
C3       0.52237    0.73497    0.02410   1.00
H1       0.74366    0.96302    0.01154   1.00
H1       0.65024    0.92424    0.02887   1.00
C5       0.63854    0.75085    -0.01793   1.00
C5       0.59141    0.71998    -0.00180   1.00
H1       0.83474    1.00649    -0.01151   1.00
H1       0.55473    0.87473    0.05029   1.00
H1       0.75051    0.81544    -0.04006   1.00
H1       0.48588    0.68493    0.02223   1.00
O3       0.63627    0.71395    -0.03482   1.00
O3       0.55284    0.64979    -0.00030   1.00
Si1      0.59045    0.71057    -0.05439   1.00
Si1      0.57658    0.61043    0.01561   1.00
C6       0.61879    0.66883    -0.07104   1.00
C6       0.50410    0.65733    -0.04781   1.00
C6       0.61106    0.79175    -0.06372   1.00
C6       0.64915    0.66004    0.03085   1.00
C6       0.50469    0.56576    0.03119   1.00
C6       0.58740    0.55030    0.00158   1.00
C6       0.69789    0.69865    -0.07197   1.00
H2       0.59830    0.61876    -0.06396   1.00
C6       0.59407    0.65438    -0.09368   1.00
H2       0.50750    0.62523    -0.03606   1.00
C6       0.46489    0.69059    -0.03794   1.00
C6       0.45420    0.60693    -0.06415   1.00
H2       0.66670    0.81780    -0.06444   1.00
C6       0.58637    0.79516    -0.08567   1.00
C6       0.59252    0.83859    -0.05082   1.00
C6       0.71800    0.70901    0.01998   1.00
C6       0.64375    0.70087    0.04925   1.00
H2       0.65718    0.62119    0.03804   1.00
H2       0.50316    0.60572    0.04002   1.00
C6       0.43421    0.52725    0.02007   1.00
C6       0.50576    0.51444    0.04685   1.00
H2       0.53571    0.50725    -0.00012   1.00
C6       0.61453    0.57105    -0.02051   1.00
C6       0.63013    0.52060    0.01134   1.00
H2       0.71912    0.70068    -0.05694   1.00
H2       0.72381    0.75021    -0.07826   1.00
H2       0.71077    0.66692    -0.08137   1.00
H2       0.59022    0.60662    -0.09878   1.00
H2       0.54443    0.64992    -0.09587   1.00
H2       0.62970    0.69405    -0.10396   1.00
H2       0.41780    0.65181    -0.03075   1.00
H2       0.49459    0.72682    -0.02609   1.00
H2       0.45093    0.71661    -0.04927   1.00
H2       0.47214    0.57359    -0.07001   1.00
H2       0.40366    0.57333    -0.05772   1.00
H2       0.44784    0.63450    -0.07677   1.00
H2       0.53153    0.76076    -0.08728   1.00
H2       0.59722    0.84659    -0.08961   1.00
H2       0.61288    0.78230    -0.09702   1.00
H2       0.54091    0.82846    -0.05390   1.00
H2       0.59607    0.83329    -0.03460   1.00
H2       0.62732    0.89222    -0.05447   1.00
H2       0.72156    0.75736    0.01598   1.00
H2       0.76111    0.72081    0.02995   1.00
H2       0.72512    0.68662    0.00625   1.00
H2       0.68933    0.72080    0.05877   1.00
H2       0.63919    0.74437    0.04445   1.00
H2       0.60065    0.66898    0.05908   1.00
H2       0.39245    0.51114    0.03096   1.00
H2       0.42864    0.56013    0.00903   1.00
H2       0.42727    0.48188    0.01217   1.00
H2       0.55256    0.53769    0.05580   1.00
H2       0.46338    0.49755    0.05755   1.00
H2       0.50066    0.46912    0.03935   1.00
H2       0.66550    0.61573    -0.02091   1.00
H2       0.61595    0.52956    -0.02852   1.00
H2       0.58083    0.58303    -0.02902   1.00
H2       0.62436    0.47682    0.00267   1.00
H2       0.68443    0.55855    0.01173   1.00
H2       0.61356    0.50273    0.02677   1.00
C4       0.17519    0.31868    -0.00283   1.00
C4       0.20316    0.37509    0.01091   1.00
C3       0.14093    0.31691    -0.02106   1.00
C3       0.19426    0.43256    0.00876   1.00
C3       0.18058    0.26004    0.00191   1.00
C3       0.24247    0.37473    0.02778   1.00
C2       0.11708    0.20131    -0.02932   1.00
C2       0.26006    0.48643    0.03961   1.00
C3       0.11232    0.25972    -0.03388   1.00
C3       0.22244    0.48701    0.02260   1.00
C3       0.15250    0.20337    -0.01142   1.00
C3       0.26796    0.42873    0.04203   1.00
H1       0.13595    0.35721    -0.02558   1.00
H1       0.16669    0.43637    -0.00286   1.00
C5       0.21424    0.25851    0.01989   1.00
C5       0.25568    0.32029    0.03048   1.00
H1       0.08769    0.26117    -0.04678   1.00
H1       0.21484    0.52751    0.02018   1.00
H1       0.15841    0.16243    -0.00811   1.00
H1       0.29225    0.42563    0.05471   1.00
O3       0.20949    0.19819    0.02611   1.00
O3       0.30417    0.32517    0.04416   1.00
Si1      0.15019    0.14915    0.04218   1.00
Si1      0.38376    0.36197    0.03702   1.00
C6       0.16370    0.07895    0.04074   1.00
C6       0.17364    0.18877    0.06615   1.00
C6       0.06720    0.12669    0.03411   1.00
C6       0.40452    0.39659    0.01228   1.00
C6       0.42539    0.42752    0.05490   1.00
C6       0.41152    0.30262    0.04061   1.00
C6       0.16999    0.05578    0.01882   1.00
H2       0.21434    0.09958    0.04744   1.00
C6       0.11683    0.01125    0.05264   1.00
H2       0.22892    0.21996    0.06469   1.00
C6       0.14828    0.23911    0.07228   1.00
C6       0.16118    0.14319    0.08531   1.00
H2       0.06698    0.11107    0.01841   1.00
C6       0.00601    0.06437    0.04483   1.00
C6       0.04539    0.18257    0.03351   1.00
C6       0.36791    0.34800    -0.00604   1.00
C6       0.40567    0.46493    0.00750   1.00
H2       0.45795    0.41037    0.01096   1.00
H2       0.40836    0.46356    0.05115   1.00
C6       0.40461    0.40751    0.07759   1.00
C6       0.50509    0.46870    0.05433   1.00
H2       0.42332    0.30617    0.05677   1.00
C6       0.35741    0.22624    0.03700   1.00
C6       0.47762    0.31515    0.02929   1.00
H2       0.20991    0.09784    0.01011   1.00
H2       0.12211    0.03619    0.01046   1.00
H2       0.18345    0.01567    0.01929   1.00
H2       0.14645    -0.01239   0.05745   1.00
H2       0.09427    0.01934    0.06615   1.00
H2       0.07514    -0.02642   0.04330   1.00
H2       0.17747    0.27063    0.08517   1.00
H2       0.15477    0.27420    0.06007   1.00
H2       0.09467    0.21159    0.07673   1.00
H2       0.18594    0.11264    0.08383   1.00
H2       0.18262    0.17426    0.09895   1.00
H2       0.10674    0.10933    0.08797   1.00
H2       0.00896    0.07075    0.06129   1.00
H2       -0.04329   0.05721    0.03988   1.00
H2       0.00456    0.01695    0.04109   1.00
H2       0.02507    0.18740    0.04803   1.00
H2       0.08661    0.23284    0.02953   1.00
H2       0.00527    0.16901    0.02219   1.00
H2       0.31801    0.34243    -0.00892   1.00
H2       0.39787    0.36841    -0.01990   1.00
H2       0.36125    0.29742    -0.00373   1.00
H2       0.42853    0.48451    -0.00738   1.00
H2       0.35477    0.45854    0.00715   1.00
H2       0.43620    0.50490    0.01841   1.00
H2       0.42403    0.45322    0.08703   1.00
H2       0.34922    0.37943    0.07942   1.00
H2       0.42470    0.37622    0.08364   1.00
H2       0.52432    0.48664    0.03907   1.00
H2       0.52452    0.51389    0.06402   1.00
H2       0.52682    0.43813    0.05983   1.00
H2       0.33933    0.21641    0.02137   1.00
H2       0.37750    0.19259    0.04070   1.00
H2       0.31365    0.21169    0.04676   1.00
H2       0.49519    0.28133    0.03510   1.00
H2       0.46866    0.30564    0.01302   1.00
H2       0.51946    0.36716    0.03139   1.00
C4       0.14450    0.82601    -0.00276   1.00
C4       0.17266    0.79787    0.01102   1.00
C3       0.18261    0.87261    -0.01844   1.00
C3       0.24298    0.81819    0.01169   1.00
C3       0.07463    0.80770    -0.00070   1.00
C3       0.12856    0.74636    0.02496   1.00
C2       0.08470    0.88326    -0.02937   1.00
C2       0.22590    0.73960    0.03966   1.00
C3       0.15369    0.90077    -0.03131   1.00
C3       0.26881    0.78943    0.02548   1.00
C3       0.04607    0.83568    -0.01408   1.00
C3       0.15606    0.72015    0.03931   1.00
H1       0.23243    0.88728    -0.02101   1.00
H1       0.27758    0.85478    0.00227   1.00
C5       0.03366    0.76134    0.01466   1.00
C5       0.05740    0.72169    0.02466   1.00
H1       0.18388    0.93460    -0.04228   1.00
H1       0.32002    0.80568    0.02515   1.00
H1       -0.00460   0.82063    -0.01278   1.00
H1       0.12452    0.68652    0.05003   1.00
O3       -0.02988   0.75260    0.01878   1.00
O3       0.01253    0.66321    0.03506   1.00
Si1      -0.03867   0.79772    0.03660   1.00
Si1      -0.01441   0.58936    0.02419   1.00
C6       -0.12470   0.77249    0.03162   1.00
C6       -0.02997   0.76557    0.06007   1.00
C6       0.01478    0.88647    0.03332   1.00
C6       0.01759    0.58765    -0.00013   1.00
C6       0.00924    0.54588    0.04147   1.00
C6       -0.10413   0.54792    0.02362   1.00
C6       -0.14314   0.77475    0.00882   1.00
H2       -0.15088   0.71847    0.03563   1.00
C6       -0.16209   0.80376    0.04382   1.00
H2       -0.04456   0.71318    0.05617   1.00
C6       0.04277    0.79727    0.06969   1.00
C6       -0.07797   0.75992    0.07796   1.00
H2       0.00678    0.89325    0.01734   1.00
C6       -0.00364   0.93448    0.04551   1.00
C6       0.09393    0.91927    0.03630   1.00
C6       0.00785    0.62893    -0.01754   1.00
C6       0.09208    0.60070    -0.00230   1.00
H2       -0.01403   0.53420    -0.00444   1.00
H2       0.06470    0.57213    0.04029   1.00
C6       -0.00607   0.55124    0.06435   1.00
C6       -0.01668   0.46880    0.03722   1.00
H2       -0.11944   0.52661    0.03883   1.00
C6       -0.13605   0.59446    0.02075   1.00
C6       -0.14284   0.48671    0.00861   1.00
H2       -0.12870   0.74466    -0.00077   1.00
H2       -0.11738   0.82699    0.00304   1.00
H2       -0.19803   0.75350    0.00685   1.00
H2       -0.21598   0.76565    0.04568   1.00
H2       -0.14089   0.82110    0.05887   1.00
H2       -0.16055   0.84700    0.03598   1.00
H2       0.04374    0.76414    0.08160   1.00
H2       0.08108    0.80341    0.05862   1.00
H2       0.05820    0.84677    0.07655   1.00
H2       -0.13157   0.72945    0.07371   1.00
H2       -0.07105   0.73448    0.09111   1.00
H2       -0.06761   0.81027    0.08289   1.00
H2       -0.00831   0.92282    0.06171   1.00
H2       0.03479    0.98832    0.04365   1.00
H2       -0.05095   0.93023    0.04014   1.00
H2       0.10914    0.93309    0.05208   1.00
H2       0.11342    0.88642    0.03159   1.00
H2       0.12088    0.96604    0.02734   1.00
H2       0.04740    0.68247    -0.01728   1.00
H2       0.01073    0.60875    -0.03234   1.00
H2       -0.04149   0.62613    -0.01676   1.00
H2       0.10088    0.58849    -0.01766   1.00
H2       0.13026    0.65367    0.00049   1.00
H2       0.10197    0.56874    0.00791   1.00
H2       0.02053    0.53287    0.07407   1.00
H2       0.01175    0.60407    0.06874   1.00
H2       -0.06041   0.52121    0.06777   1.00
H2       -0.00624   0.46038    0.02165   1.00
H2       0.00921    0.45017    0.04715   1.00
H2       -0.07139   0.43748    0.04000   1.00
H2       -0.12218   0.62107    0.00623   1.00
H2       -0.19163   0.56540    0.02176   1.00
H2       -0.11831   0.63262    0.03267   1.00
H2       -0.19753   0.45906    0.01187   1.00
H2       -0.13632   0.50410    -0.00712   1.00
H2       -0.12531   0.44995    0.00989   1.00
C4       0.13800    0.31693    0.49780   1.00
C4       0.16596    0.37318    0.51160   1.00
C3       0.06892    0.28270    0.49135   1.00
C3       0.12633    0.39678    0.52174   1.00
C3       0.18078    0.29242    0.49016   1.00
C3       0.23750    0.40836    0.51558   1.00
C2       0.08452    0.20140    0.47065   1.00
C2       0.22608    0.48634    0.53964   1.00
C3       0.04278    0.22629    0.47824   1.00
C3       0.15562    0.45220    0.53523   1.00
C3       0.15375    0.23624    0.47665   1.00
C3       0.26553    0.46220    0.52989   1.00
H1       0.03564    0.29789    0.49594   1.00
H1       0.07497    0.37415    0.51971   1.00
C5       0.25036    0.32436    0.49600   1.00
C5       0.28064    0.38932    0.50544   1.00
H1       -0.00772   0.20327    0.47422   1.00
H1       0.12456    0.46740    0.54198   1.00
H1       0.18550    0.22042    0.47085   1.00
H1       0.31604    0.48400    0.53354   1.00
O3       0.28831    0.29393    0.49138   1.00
O3       0.35075    0.43054    0.50594   1.00
Si1      0.29481    0.24369    0.50788   1.00
Si1      0.38732    0.49270    0.48960   1.00
C6       0.33661    0.21359    0.49190   1.00
C6       0.34916    0.29551    0.52743   1.00
C6       0.21514    0.17643    0.51607   1.00
C6       0.33493    0.50615    0.47254   1.00
C6       0.43199    0.56488    0.50507   1.00
C6       0.44750    0.48041    0.47612   1.00
C6       0.30500    0.18973    0.47023   1.00
H2       0.38585    0.25954    0.48942   1.00
C6       0.35366    0.15800    0.49941   1.00
H2       0.37958    0.34412    0.51965   1.00
C6       0.31667    0.31127    0.54611   1.00
C6       0.40178    0.27732    0.53666   1.00
H2       0.18791    0.15703    0.50174   1.00
C6       0.21455    0.11428    0.52673   1.00
C6       0.16838    0.19254    0.52989   1.00
C6       0.28568    0.44565    0.45854   1.00
C6       0.29319    0.53968    0.48038   1.00
H2       0.37227    0.54453    0.46230   1.00
H2       0.39187    0.57114    0.51212   1.00
C6       0.47302    0.55773    0.52310   1.00
C6       0.48103    0.63404    0.49436   1.00
H2       0.49157    0.50068    0.48622   1.00
C6       0.42831    0.40501    0.47215   1.00
C6       0.47458    0.51871    0.45545   1.00
H2       0.30097    0.22982    0.46224   1.00
H2       0.25405    0.14483    0.47106   1.00
H2       0.33672    0.17688    0.46081   1.00
H2       0.40126    0.16659    0.49253   1.00
H2       0.35972    0.15823    0.51577   1.00
H2       0.31450    0.10653    0.49508   1.00
H2       0.35557    0.35448    0.55475   1.00
H2       0.27903    0.32520    0.54158   1.00
H2       0.29251    0.26770    0.55638   1.00
H2       0.43461    0.27494    0.52496   1.00
H2       0.43576    0.31618    0.54747   1.00
H2       0.37599    0.22864    0.54469   1.00
H2       0.25019    0.13095    0.53945   1.00
H2       0.16396    0.07749    0.53252   1.00
H2       0.22747    0.08568    0.51616   1.00
H2       0.18017    0.19310    0.54597   1.00
H2       0.17199    0.24107    0.52655   1.00
H2       0.11489    0.15341    0.52786   1.00
H2       0.23835    0.41079    0.46628   1.00
H2       0.27187    0.46470    0.44517   1.00
H2       0.30879    0.41649    0.45308   1.00
H2       0.27133    0.55332    0.46766   1.00
H2       0.25094    0.50557    0.49010   1.00
H2       0.32494    0.58678    0.48871   1.00
H2       0.48910    0.60018    0.53372   1.00
H2       0.44183    0.51096    0.53171   1.00
H2       0.51862    0.55743    0.51791   1.00
H2       0.45592    0.64437    0.48186   1.00
H2       0.49792    0.67639    0.50507   1.00
H2       0.52649    0.63471    0.48852   1.00
H2       0.38286    0.37803    0.46274   1.00
H2       0.46986    0.40182    0.46480   1.00
H2       0.41830    0.37794    0.48646   1.00
H2       0.51865    0.51540    0.45020   1.00
H2       0.43557    0.49691    0.44364   1.00
H2       0.49123    0.57280    0.45680   1.00
C4       0.68436    0.82119    0.49828   1.00
C4       0.62796    0.79322    0.51203   1.00
C3       0.73323    0.79944    0.49732   1.00
C3       0.61830    0.74525    0.52740   1.00
C3       0.69352    0.87466    0.48489   1.00
C3       0.57796    0.81380    0.51044   1.00
C2       0.79890    0.88267    0.47076   1.00
C2       0.51336    0.74019    0.53953   1.00
C3       0.78914    0.82956    0.48403   1.00
C3       0.56225    0.71896    0.54065   1.00
C3       0.74955    0.90350    0.47132   1.00
C3       0.52346    0.78892    0.52450   1.00
H1       0.72950    0.76092    0.50620   1.00
H1       0.65190    0.72832    0.52950   1.00
C5       0.64648    0.89876    0.48507   1.00
C5       0.58286    0.85951    0.49498   1.00
H1       0.82311    0.81205    0.48411   1.00
H1       0.55757    0.68396    0.55136   1.00
H1       0.75441    0.94050    0.46141   1.00
H1       0.49055    0.80745    0.52399   1.00
O3       0.66147    0.95743    0.47468   1.00
O3       0.52878    0.86954    0.49063   1.00
Si1      0.69873    1.03074    0.48642   1.00
Si1      0.46939    0.81682    0.47521   1.00
C6       0.71398    1.08259    0.46484   1.00
C6       0.63765    1.03282    0.50252   1.00
C6       0.77578    1.04880    0.49837   1.00
C6       0.47567    0.74742    0.46546   1.00
C6       0.39484    0.78589    0.48979   1.00
C6       0.46434    0.86566    0.45520   1.00
C6       0.74581    1.06601    0.44610   1.00
H2       0.66237    1.06880    0.46019   1.00
C6       0.75395    1.16244    0.46658   1.00
H2       0.58996    0.99716    0.49502   1.00
C6       0.63119    1.00599    0.52474   1.00
C6       0.63635    1.10104    0.50451   1.00
H2       0.80162    1.03687    0.48641   1.00
C6       0.82574    1.12469    0.50455   1.00
C6       0.77380    1.00649    0.51752   1.00
C6       0.54167    0.76333    0.45352   1.00
C6       0.45874    0.68513    0.47952   1.00
H2       0.43481    0.72618    0.45422   1.00
H2       0.40008    0.75383    0.50117   1.00
C6       0.38646    0.84044    0.50208   1.00
C6       0.32531    0.73991    0.47884   1.00
H2       0.43360    0.88620    0.46140   1.00
C6       0.53264    0.92939    0.44863   1.00
C6       0.42798    0.82790    0.43514   1.00
H2       0.71500    1.01270    0.44151   1.00
H2       0.79728    1.07596    0.44943   1.00
H2       0.74874    1.09675    0.43294   1.00
H2       0.73429    1.18432    0.45553   1.00
H2       0.74968    1.18046    0.48149   1.00
H2       0.80823    1.18438    0.46333   1.00
H2       0.58319    0.99640    0.53159   1.00
H2       0.63106    0.95791    0.52535   1.00
H2       0.67257    1.04311    0.53427   1.00
H2       0.63066    1.11939    0.48974   1.00
H2       0.59303    1.09416    0.51365   1.00
H2       0.68273    1.14059    0.51176   1.00
H2       0.79999    1.14479    0.51391   1.00
H2       0.86969    1.13024    0.51309   1.00
H2       0.84720    1.15703    0.49130   1.00
H2       0.76767    1.02837    0.53157   1.00
H2       0.73318    0.95381    0.51708   1.00
H2       0.82165    1.00584    0.51877   1.00
H2       0.58282    0.77091    0.46368   1.00
H2       0.53180    0.72082    0.44352   1.00
H2       0.55995    0.80839    0.44399   1.00
H2       0.45553    0.64279    0.47064   1.00
H2       0.49754    0.69747    0.49106   1.00
H2       0.40960    0.66550    0.48707   1.00
H2       0.34530    0.81561    0.51318   1.00
H2       0.43273    0.87420    0.51057   1.00
H2       0.37447    0.87183    0.49227   1.00
H2       0.32573    0.69885    0.47030   1.00
H2       0.28398    0.71589    0.48993   1.00
H2       0.31265    0.76961    0.46848   1.00
H2       0.56922    0.91564    0.44280   1.00
H2       0.52450    0.95899    0.43701   1.00
H2       0.55579    0.96291    0.46154   1.00
H2       0.41893    0.86133    0.42524   1.00
H2       0.45880    0.81153    0.42668   1.00
H2       0.37839    0.78319    0.43813   1.00
C4       0.17884    0.86313    0.49825   1.00
C4       0.20682    0.83472    0.51200   1.00
C3       0.20146    0.93390    0.49702   1.00
C3       0.25576    0.87333    0.52712   1.00
C3       0.12445    0.81865    0.48515   1.00
C3       0.18523    0.76385    0.51069   1.00
C2       0.11732    0.91620    0.47075   1.00
C2       0.25982    0.77320    0.53954   1.00
C3       0.17133    0.95970    0.48374   1.00
C3       0.28203    0.84358    0.54039   1.00
C3       0.09559    0.84584    0.47158   1.00
C3       0.21015    0.73430    0.52477   1.00
H1       0.24066    0.96879    0.50569   1.00
H1       0.27345    0.92409    0.52902   1.00
C5       0.09944    0.74736    0.48561   1.00
C5       0.13848    0.72267    0.49548   1.00
H1       0.18950    1.01130    0.48361   1.00
H1       0.31775    0.87412    0.55091   1.00
H1       0.05789    0.81353    0.46187   1.00
H1       0.19093    0.68273    0.52446   1.00
O3       0.04004    0.70375    0.47551   1.00
O3       0.12733    0.65802    0.49135   1.00
Si1      -0.03266   0.66915    0.48758   1.00
Si1      0.17876    0.64971    0.47580   1.00
C6       -0.08573   0.63203    0.46626   1.00
C6       -0.03492   0.60633    0.50387   1.00
C6       -0.04907   0.72947    0.49939   1.00
C6       0.24830    0.72439    0.46564   1.00
C6       0.20948    0.60599    0.49042   1.00
C6       0.12849    0.59518    0.45609   1.00
C6       -0.06945   0.67961    0.44732   1.00
H2       -0.07287   0.59346    0.46168   1.00
C6       -0.16548   0.59318    0.46834   1.00
H2       -0.00010   0.59329    0.49630   1.00
C6       -0.00688   0.62755    0.52595   1.00
C6       -0.10358   0.53745    0.50625   1.00
H2       -0.03724   0.76675    0.48729   1.00
C6       -0.12446   0.70483    0.50587   1.00
C6       -0.00553   0.77039    0.51830   1.00
C6       0.23271    0.77453    0.45359   1.00
C6       0.31150    0.76982    0.47938   1.00
H2       0.26851    0.70373    0.45440   1.00
H2       0.24243    0.64364    0.50160   1.00
C6       0.15500    0.54404    0.50306   1.00
C6       0.25419    0.58099    0.47941   1.00
H2       0.10761    0.54413    0.46250   1.00
C6       0.06501    0.60046    0.44969   1.00
C6       0.16498    0.59501    0.43593   1.00
H2       -0.01645   0.70122    0.44252   1.00
H2       -0.07852   0.72177    0.45056   1.00
H2       -0.10104   0.65142    0.43434   1.00
H2       -0.18838   0.55112    0.45747   1.00
H2       -0.18296   0.57173    0.48336   1.00
H2       -0.18690   0.62594    0.46505   1.00
H2       0.00237    0.58902    0.53288   1.00
H2       0.04159    0.67514    0.52628   1.00
H2       -0.04317   0.63289    0.53557   1.00
H2       -0.12288   0.51278    0.49161   1.00
H2       -0.09687   0.50108    0.51549   1.00
H2       -0.14234   0.54532    0.51360   1.00
H2       -0.14464   0.65942    0.51542   1.00
H2       -0.12894   0.74404    0.51430   1.00
H2       -0.15736   0.69373    0.49274   1.00
H2       -0.02697   0.74320    0.53249   1.00
H2       0.04690    0.78170    0.51767   1.00
H2       -0.00406   0.81931    0.51941   1.00
H2       0.22621    0.80897    0.46367   1.00
H2       0.27489    0.80625    0.44337   1.00
H2       0.18712    0.74778    0.44427   1.00
H2       0.35366    0.80814    0.47027   1.00
H2       0.30024    0.79724    0.49087   1.00
H2       0.33088    0.74015    0.48696   1.00
H2       0.17992    0.52774    0.51414   1.00
H2       0.12212    0.55759    0.51161   1.00
H2       0.12270    0.50034    0.49346   1.00
H2       0.29515    0.62173    0.47064   1.00
H2       0.27830    0.56372    0.49049   1.00
H2       0.22356    0.53827    0.46927   1.00
H2       0.07914    0.65067    0.44367   1.00
H2       0.03449    0.56233    0.43827   1.00
H2       0.03223    0.59117    0.46273   1.00
H2       0.13066    0.55223    0.42626   1.00
H2       0.18153    0.64188    0.42729   1.00
H2       0.20940    0.58953    0.43881   1.00
C4       0.31512    0.14574    1.00149   1.00
C4       0.37275    0.17341    0.98821   1.00
C3       0.30151    0.18574    1.01524   1.00
C3       0.42570    0.24265    0.98865   1.00
C3       0.26870    0.07397    1.00136   1.00
C3       0.37828    0.13000    0.97356   1.00
C2       0.19931    0.08549    1.02856   1.00
C2       0.48843    0.22511    0.96115   1.00
C3       0.24544    0.15645    1.02849   1.00
C3       0.48164    0.26798    0.97537   1.00
C3       0.21172    0.04557    1.01458   1.00
C3       0.43650    0.15584    0.96091   1.00
H1       0.33181    0.23735    1.01598   1.00
H1       0.42541    0.27662    0.99872   1.00
C5       0.27933    0.03109    0.98798   1.00
C5       0.32608    0.06095    0.97171   1.00
H1       0.23847    0.18786    1.03820   1.00
H1       0.51810    0.31863    0.97626   1.00
H1       0.17783    -0.00573   1.01393   1.00
H1       0.44182    0.12312    0.95141   1.00
O3       0.24142    -0.03869   0.99022   1.00
O3       0.32355    0.02202    0.95523   1.00
Si1      0.27105    -0.07827   1.00389   1.00
Si1      0.28649    0.02603    0.93446   1.00
C6       0.19650    -0.15922   1.00369   1.00
C6       0.33714    -0.07886   0.98992   1.00
C6       0.29319    -0.04597   1.02881   1.00
C6       0.25387    0.08247    0.93379   1.00
C6       0.35086    0.05070    0.91613   1.00
C6       0.22154    -0.05755   0.92875   1.00
C6       0.12829    -0.16015   1.00858   1.00
H2       0.19267    -0.17373   0.98774   1.00
C6       0.19270    -0.22052   1.01592   1.00
H2       0.32332    -0.07443   0.97437   1.00
C6       0.41162    -0.01845   0.99291   1.00
C6       0.34325    -0.14472   0.99029   1.00
H2       0.24850    -0.04296   1.03352   1.00
C6       0.30181    -0.09205   1.04489   1.00
C6       0.35679    0.02681    1.03233   1.00
C6       0.20017    0.07373    0.95018   1.00
C6       0.30424    0.16105    0.93178   1.00
H2       0.22617    0.06911    0.91943   1.00
H2       0.38731    0.10349    0.92004   1.00
C6       0.39242    0.01245    0.91671   1.00
C6       0.33060    0.05110    0.89348   1.00
H2       0.24836    -0.08053   0.92138   1.00
C6       0.18447    -0.10471   0.94721   1.00
C6       0.16414    -0.06681   0.91365   1.00
H2       0.12052    -0.12645   0.99846   1.00
H2       0.12787    -0.14399   1.02418   1.00
H2       0.08423    -0.21121   1.00662   1.00
H2       0.16053    -0.26838   1.00789   1.00
H2       0.24229    -0.21617   1.01810   1.00
H2       0.16996    -0.22597   1.03091   1.00
H2       0.44462    -0.01707   0.98058   1.00
H2       0.41412    0.03080    0.99280   1.00
H2       0.43344    -0.02361   1.00711   1.00
H2       0.29592    -0.18941   0.98543   1.00
H2       0.38275    -0.14043   0.97984   1.00
H2       0.35650    -0.15398   1.00543   1.00
H2       0.33789    -0.10744   1.03966   1.00
H2       0.32012    -0.06605   1.05947   1.00
H2       0.25338    -0.13739   1.04825   1.00
H2       0.40395    0.02515    1.03380   1.00
H2       0.36474    0.06267    1.02031   1.00
H2       0.35046    0.04880    1.04637   1.00
H2       0.22440    0.09918    0.96432   1.00
H2       0.16998    0.09623    0.94492   1.00
H2       0.16452    0.02036    0.95351   1.00
H2       0.27628    0.18789    0.92869   1.00
H2       0.33346    0.18301    0.94558   1.00
H2       0.33991    0.17321    0.91925   1.00
H2       0.43804    0.03882    0.90723   1.00
H2       0.40981    0.01096    0.93206   1.00
H2       0.36257    -0.03984   0.91120   1.00
H2       0.30294    0.07868    0.89151   1.00
H2       0.37622    0.07657    0.88396   1.00
H2       0.29915    -0.00064   0.88765   1.00
H2       0.15752    -0.08561   0.95638   1.00
H2       0.14788    -0.15659   0.94241   1.00
H2       0.22141    -0.10811   0.95691   1.00
H2       0.13335    -0.12012   0.90898   1.00
H2       0.12985    -0.05166   0.92055   1.00
H2       0.18520    -0.03703   0.89985   1.00
C4       0.82159    0.68510    1.00144   1.00
C4       0.79372    0.62857    0.98774   1.00
C3       0.80983    0.74091    0.99979   1.00
C3       0.75657    0.62517    0.97000   1.00
C3       0.86453    0.68699    1.01758   1.00
C3       0.80302    0.57186    0.99187   1.00
C2       0.88254    0.79914    1.02916   1.00
C2       0.74032    0.51312    0.96055   1.00
C3       0.83975    0.79655    1.01318   1.00
C3       0.73004    0.56878    0.95688   1.00
C3       0.89320    0.74298    1.03116   1.00
C3       0.77839    0.51685    0.97799   1.00
H1       0.77900    0.74265    0.98884   1.00
H1       0.74805    0.66374    0.96603   1.00
C5       0.87832    0.63280    1.02009   1.00
C5       0.83731    0.57052    1.00969   1.00
H1       0.82981    0.83569    1.01115   1.00
H1       0.70308    0.56886    0.94437   1.00
H1       0.92236    0.74273    1.04300   1.00
H1       0.78923    0.47871    0.98048   1.00
O3       0.92835    0.63996    1.03343   1.00
O3       0.83514    0.51126    1.01601   1.00
Si1      1.00588    0.66759    1.02524   1.00
Si1      0.77056    0.45683    1.02964   1.00
C6       1.04445    0.67664    1.04918   1.00
C6       1.00528    0.60115    1.01114   1.00
C6       1.04071    0.74661    1.01250   1.00
C6       0.70479    0.47507    1.03493   1.00
C6       0.73742    0.38131    1.01543   1.00
C6       0.80380    0.44456    1.05240   1.00
C6       1.02590    0.71421    1.06580   1.00
H2       1.02123    0.62383    1.05431   1.00
C6       1.12347    0.70659    1.05116   1.00
H2       0.96175    0.55616    1.01767   1.00
C6       0.99088    0.59749    0.98783   1.00
C6       1.06710    0.58878    1.01329   1.00
H2       1.02859    0.77671    1.02287   1.00
C6       1.12000    0.78767    1.00960   1.00
C6       1.01173    0.75036    0.99117   1.00
C6       0.72432    0.54371    1.04588   1.00
C6       0.65295    0.46624    1.01783   1.00
H2       0.67351    0.43526    1.04582   1.00
H2       0.71507    0.39151    1.00217   1.00
C6       0.79078    0.36308    1.00681   1.00
C6       0.67933    0.31475    1.02533   1.00
H2       0.82003    0.40810    1.04834   1.00
C6       0.86912    0.50778    1.06085   1.00
C6       0.75424    0.41261    1.07086   1.00
H2       0.97081    0.68996    1.06795   1.00
H2       1.04504    0.76755    1.06174   1.00
H2       1.04758    0.71305    1.08051   1.00
H2       1.13444    0.68257    1.06388   1.00
H2       1.14607    0.69845    1.03767   1.00
H2       1.15064    0.76132    1.05422   1.00
H2       0.97756    0.54733    0.98180   1.00
H2       0.94811    0.60500    0.98436   1.00
H2       1.03564    0.63541    0.97956   1.00
H2       1.07545    0.58045    1.02908   1.00
H2       1.05809    0.54310    1.00503   1.00
H2       1.11376    0.63177    1.00727   1.00
H2       1.13819    0.75648    1.00227   1.00
H2       1.13643    0.83342    1.00035   1.00
H2       1.14615    0.80609    1.02401   1.00
H2       1.03706    0.73965    0.97880   1.00
H2       0.95755    0.71532    0.98954   1.00
H2       1.01976    0.80160    0.98862   1.00
H2       0.74289    0.58607    1.03523   1.00
H2       0.67980    0.54039    1.05345   1.00
H2       0.76313    0.55653    1.05746   1.00
H2       0.61024    0.46997    1.02412   1.00
H2       0.67606    0.50526    1.00616   1.00
H2       0.63079    0.41644    1.01053   1.00
H2       0.76701    0.32247    0.99549   1.00
H2       0.83284    0.40680    0.99922   1.00
H2       0.81214    0.34569    1.01866   1.00
H2       0.63852    0.32215    1.03127   1.00
H2       0.65626    0.27385    1.01407   1.00
H2       0.69881    0.29695    1.03763   1.00
H2       0.86013    0.54939    1.06479   1.00
H2       0.88866    0.49489    1.07427   1.00
H2       0.90923    0.52661    1.04951   1.00
H2       0.77789    0.39804    1.08285   1.00
H2       0.74066    0.44859    1.07739   1.00
H2       0.70735    0.36653    1.06658   1.00
C4       0.86312    0.17884    1.00175   1.00
C4       0.83472    0.20683    0.98800   1.00
C3       0.93391    0.20161    1.00303   1.00
C3       0.87337    0.25593    0.97292   1.00
C3       0.81862    0.12430    1.01481   1.00
C3       0.76380    0.18507    0.98927   1.00
C2       0.91619    0.11731    1.02925   1.00
C2       0.77321    0.25983    0.96046   1.00
C3       0.95972    0.17147    1.01631   1.00
C3       0.84363    0.28219    0.95965   1.00
C3       0.84580    0.09544    1.02838   1.00
C3       0.73427    0.20999    0.97519   1.00
H1       0.96882    0.24091    0.99440   1.00
H1       0.92417    0.27374    0.97106   1.00
C5       0.74730    0.09915    1.01430   1.00
C5       0.72256    0.13816    1.00444   1.00
H1       1.01134    0.18975    1.01647   1.00
H1       0.87420    0.31803    0.94917   1.00
H1       0.81348    0.05763    1.03805   1.00
H1       0.68268    0.19067    0.97546   1.00
O3       0.70371    0.03964    1.02435   1.00
O3       0.65783    0.12682    1.00853   1.00
Si1      0.66935    -0.03297   1.01224   1.00
Si1      0.64925    0.17804    1.02410   1.00
C6       0.63214    -0.08623   1.03351   1.00
C6       0.60659    -0.03525   0.99591   1.00
C6       0.72988    -0.04911   1.00044   1.00
C6       0.72376    0.24760    1.03433   1.00
C6       0.60551    0.20873    1.00947   1.00
C6       0.59462    0.12753    1.04376   1.00
C6       0.67959    -0.07001   1.05248   1.00
H2       0.59346    -0.07353   1.03808   1.00
C6       0.59346    -0.16596   1.03137   1.00
H2       0.59338    -0.00057   1.00349   1.00
C6       0.62794    -0.00702   0.97385   1.00
C6       0.53782    -0.10398   0.99346   1.00
H2       0.76708    -0.03729   1.01256   1.00
C6       0.70546    -0.12441   0.99391   1.00
C6       0.77090    -0.00537   0.98158   1.00
C6       0.77390    0.23206    1.04640   1.00
C6       0.76920    0.31094    1.02064   1.00
H2       0.70294    0.26764    1.04557   1.00
H2       0.64321    0.24182    0.99833   1.00
C6       0.54373    0.15425    0.99678   1.00
C6       0.58028    0.25322    1.02049   1.00
H2       0.54361    0.10661    1.03731   1.00
C6       0.60001    0.06410    1.05013   1.00
C6       0.59419    0.16381    1.06394   1.00
H2       0.70105    -0.01706   1.05732   1.00
H2       0.72185    -0.07893   1.04926   1.00
H2       0.65134    -0.10173   1.06544   1.00
H2       0.55132    -0.18902   1.04221   1.00
H2       0.57216    -0.18336   1.01633   1.00
H2       0.62630    -0.18730   1.03466   1.00
H2       0.58940    0.00218    0.96691   1.00
H2       0.67547    0.04152    0.97357   1.00
H2       0.63346    -0.04317   0.96422   1.00
H2       0.51305    -0.12344   1.00808   1.00
H2       0.50146    -0.09729   0.98421   1.00
H2       0.54586    -0.14261   0.98610   1.00
H2       0.66011    -0.14461   0.98433   1.00
H2       0.74480    -0.12872   0.98550   1.00
H2       0.69432    -0.15740   1.00702   1.00
H2       0.74385    -0.02674   0.96736   1.00
H2       0.78209    0.04702    0.98223   1.00
H2       0.81989    -0.00377   0.98049   1.00
H2       0.80849    0.22574    1.03633   1.00
H2       0.80547    0.27418    1.05665   1.00
H2       0.74716    0.18639    1.05568   1.00
H2       0.80739    0.35308    1.02979   1.00
H2       0.79678    0.29986    1.00916   1.00
H2       0.73951    0.33029    1.01306   1.00
H2       0.52743    0.17920    0.98571   1.00
H2       0.55745    0.12152    0.98822   1.00
H2       0.49997    0.12181    1.00634   1.00
H2       0.62089    0.29417    1.02930   1.00
H2       0.56302    0.27735    1.00941   1.00
H2       0.53750    0.22245    1.03059   1.00
H2       0.65020    0.07829    1.05618   1.00
H2       0.56182    0.03343    1.06152   1.00
H2       0.59091    0.03144    1.03707   1.00
H2       0.55136    0.12935    1.07357   1.00
H2       0.64101    0.18040    1.07261   1.00
H2       0.58861    0.20819    1.06108   1.00
C4       0.52289    1.01469    0.83615   1.00
C4       0.49452    0.95831    0.82239   1.00
C3       0.48852    1.01815    0.85373   1.00
C3       0.42672    0.90276    0.82382   1.00
C3       0.58886    1.07154    0.83209   1.00
C3       0.53577    0.95668    0.80628   1.00
C2       0.58232    1.13198    0.86267   1.00
C2       0.44042    0.84694    0.79370   1.00
C3       0.51721    1.07531    0.86657   1.00
C3       0.40059    0.84828    0.80999   1.00
C3       0.61745    1.12818    0.84543   1.00
C3       0.50753    0.90277    0.79199   1.00
H1       0.44175    0.97914    0.85776   1.00
H1       0.39420    0.90044    0.83487   1.00
C5       0.62597    1.07132    0.81477   1.00
C5       0.60472    1.00905    0.80436   1.00
H1       0.48975    1.07515    0.87898   1.00
H1       0.35138    0.80920    0.81187   1.00
H1       0.66559    1.16776    0.84263   1.00
H1       0.53631    0.90456    0.77981   1.00
O3       0.68403    1.13031    0.80905   1.00
O3       0.64904    1.00186    0.79155   1.00
Si1      0.67902    1.18100    0.79239   1.00
Si1      0.68770    0.96208    0.79979   1.00
C6       0.76377    1.24873    0.79476   1.00
C6       0.66504    1.14118    0.76851   1.00
C6       0.62000    1.20701    0.79913   1.00
C6       0.66863    0.92738    0.82454   1.00
C6       0.66392    0.89611    0.78207   1.00
C6       0.77600    1.01852    0.79730   1.00
C6       0.79018    1.27104    0.81699   1.00
H2       0.79297    1.22610    0.78881   1.00
C6       0.78929    1.31698    0.78267   1.00
H2       0.68667    1.10805    0.77068   1.00
C6       0.58981    1.09338    0.76142   1.00
C6       0.70253    1.18616    0.74958   1.00
H2       0.63332    1.22227    0.81496   1.00
C6       0.62591    1.27073    0.78790   1.00
C6       0.54153    1.15365    0.79879   1.00
C6       0.67988    0.97658    0.84263   1.00
C6       0.59908    0.86075    0.82867   1.00
H2       0.70630    0.91130    0.82671   1.00
H2       0.60990    0.86185    0.78515   1.00
C6       0.66772    0.91659    0.75922   1.00
C6       0.69924    0.85204    0.78371   1.00
H2       0.78636    1.01444    0.78134   1.00
C6       0.80094    1.09563    0.80064   1.00
C6       0.82571    1.00306    0.80970   1.00
H2       0.78463    1.22810    0.82602   1.00
H2       0.76234    1.29251    0.82464   1.00
H2       0.84438    1.30944    0.81717   1.00
H2       0.84303    1.33853    0.77865   1.00
H2       0.76117    1.31019    0.76869   1.00
H2       0.78582    1.35577    0.79159   1.00
H2       0.58798    1.06119    0.74879   1.00
H2       0.55832    1.05889    0.77339   1.00
H2       0.56650    1.12283    0.75626   1.00
H2       0.75764    1.21471    0.75182   1.00
H2       0.69372    1.15480    0.73606   1.00
H2       0.68462    1.22185    0.74625   1.00
H2       0.62482    1.26434    0.77146   1.00
H2       0.58451    1.28017    0.79200   1.00
H2       0.67244    1.31702    0.79207   1.00
H2       0.51908    1.14992    0.78386   1.00
H2       0.52958    1.10264    0.80303   1.00
H2       0.51461    1.16887    0.80947   1.00
H2       0.63658    0.98448    0.84464   1.00
H2       0.68598    0.95523    0.85683   1.00
H2       0.72550    1.02617    0.84070   1.00
H2       0.59897    0.84057    0.84376   1.00
H2       0.55605    0.86949    0.82814   1.00
H2       0.58959    0.82027    0.81795   1.00
H2       0.64130    0.87106    0.74971   1.00
H2       0.64284    0.94669    0.75664   1.00
H2       0.72022    0.94607    0.75385   1.00
H2       0.69722    0.83364    0.79913   1.00
H2       0.67342    0.80703    0.77396   1.00
H2       0.75250    0.88073    0.77892   1.00
H2       0.79096    1.10613    0.81602   1.00
H2       0.85548    1.12740    0.79765   1.00
H2       0.77477    1.11195    0.79023   1.00
H2       0.87831    1.03513    0.80455   1.00
H2       0.82419    1.01281    0.82587   1.00
H2       0.81354    0.95031    0.80787   1.00
C4       -0.01484   0.50732    0.83609   1.00
C4       0.04146    0.53546    0.82231   1.00
C3       -0.02332   0.46074    0.85177   1.00
C3       0.09148    0.51516    0.82164   1.00
C3       -0.06642   0.52561    0.83402   1.00
C3       0.04885    0.58695    0.80836   1.00
C2       -0.13189   0.45007    0.86270   1.00
C2       0.15297    0.59373    0.79367   1.00
C3       -0.08039   0.43259    0.86464   1.00
C3       0.14607    0.54392    0.80785   1.00
C3       -0.12296   0.49763    0.84740   1.00
C3       0.10257    0.61316    0.79401   1.00
H1       0.01185    0.44609    0.85435   1.00
H1       0.08950    0.47859    0.83107   1.00
C5       -0.06103   0.57195    0.81866   1.00
C5       0.00235    0.61161    0.80866   1.00
H1       -0.08402   0.39877    0.87562   1.00
H1       0.18103    0.52768    0.80819   1.00
H1       -0.15858   0.51267    0.84610   1.00
H1       0.10465    0.64678    0.78329   1.00
O3       -0.11585   0.58066    0.81453   1.00
O3       0.01594    0.67007    0.79825   1.00
Si1      -0.16976   0.53552    0.79672   1.00
Si1      0.06284    0.74393    0.80912   1.00
C6       -0.23057   0.56073    0.80169   1.00
C6       -0.12890   0.56766    0.77324   1.00
C6       -0.20502   0.44678    0.80000   1.00
C6       0.09655    0.74568    0.83344   1.00
C6       0.12997    0.78741    0.79183   1.00
C6       0.01453    0.78535    0.80968   1.00
C6       -0.25127   0.55849    0.82449   1.00
H2       -0.20274   0.61475    0.79767   1.00
C6       -0.29923   0.52943    0.78949   1.00
H2       -0.09111   0.62005    0.77714   1.00
C6       -0.08785   0.53596    0.76363   1.00
C6       -0.17126   0.57328    0.75535   1.00
H2       -0.21981   0.44001    0.81599   1.00
C6       -0.27145   0.39874    0.78781   1.00
C6       -0.15866   0.41400    0.79703   1.00
C6       0.04555    0.70441    0.85085   1.00
C6       0.15801    0.73265    0.83562   1.00
H2       0.11837    0.79913    0.83774   1.00
H2       0.15919    0.76117    0.79302   1.00
C6       0.10929    0.78202    0.76895   1.00
C6       0.18111    0.86450    0.79608   1.00
H2       0.02053    0.80665    0.79447   1.00
C6       -0.06392   0.73879    0.81255   1.00
C6       0.03702    0.84657    0.82468   1.00
H2       -0.20674   0.58860    0.83408   1.00
H2       -0.27774   0.50625    0.83027   1.00
H2       -0.28493   0.57973    0.82645   1.00
H2       -0.31503   0.56753    0.78763   1.00
H2       -0.29536   0.51209    0.77444   1.00
H2       -0.34092   0.48620    0.79733   1.00
H2       -0.05375   0.56908    0.75172   1.00
H2       -0.05568   0.52984    0.77470   1.00
H2       -0.12191   0.48645    0.75678   1.00
H2       -0.19441   0.60373    0.75960   1.00
H2       -0.13890   0.59870    0.74220   1.00
H2       -0.21124   0.52291    0.75043   1.00
H2       -0.26446   0.41039    0.77162   1.00
H2       -0.28685   0.34490    0.78969   1.00
H2       -0.31453   0.40298    0.79319   1.00
H2       -0.15727   0.40016    0.78125   1.00
H2       -0.10632   0.44686    0.80174   1.00
H2       -0.17847   0.36723    0.80600   1.00
H2       0.03156    0.65087    0.85059   1.00
H2       0.06860    0.72461    0.86565   1.00
H2       -0.00102   0.70719    0.85007   1.00
H2       0.17902    0.74488    0.85098   1.00
H2       0.14323    0.67968    0.83283   1.00
H2       0.19986    0.76461    0.82541   1.00
H2       0.15427    0.80039    0.75924   1.00
H2       0.07430    0.72919    0.76457   1.00
H2       0.08498    0.81204    0.76553   1.00
H2       0.19998    0.87294    0.81165   1.00
H2       0.22563    0.88313    0.78615   1.00
H2       0.15771    0.89580    0.79329   1.00
H2       -0.07665   0.71220    0.82707   1.00
H2       -0.09045   0.76784    0.81153   1.00
H2       -0.08432   0.70063    0.80064   1.00
H2       0.00997    0.87421    0.82142   1.00
H2       0.02616    0.82920    0.84041   1.00
H2       0.09131    0.88334    0.82340   1.00
C4       0.49266    0.47781    0.83609   1.00
C4       0.46452    0.50598    0.82231   1.00
C3       0.53906    0.51585    0.85182   1.00
C3       0.48466    0.57626    0.82169   1.00
C3       0.47456    0.40801    0.83398   1.00
C3       0.41321    0.46192    0.80831   1.00
C2       0.54992    0.41802    0.86270   1.00
C2       0.40628    0.55924    0.79367   1.00
C3       0.56722    0.48694    0.86469   1.00
C3       0.45591    0.60210    0.80790   1.00
C3       0.50254    0.37945    0.84736   1.00
C3       0.38701    0.48944    0.79396   1.00
H1       0.55357    0.56562    0.85443   1.00
H1       0.52111    0.61083    0.83116   1.00
C5       0.42840    0.36712    0.81857   1.00
C5       0.38871    0.39080    0.80856   1.00
H1       0.60090    0.51708    0.87570   1.00
H1       0.47202    0.65327    0.80827   1.00
H1       0.48763    0.32883    0.84602   1.00
H1       0.35353    0.45796    0.78321   1.00
O3       0.41989    0.30369    0.81441   1.00
O3       0.33039    0.34592    0.79810   1.00
Si1      0.46528    0.29523    0.79661   1.00
Si1      0.25640    0.31868    0.80892   1.00
C6       0.44023    0.20921    0.80152   1.00
C6       0.43328    0.30405    0.77312   1.00
C6       0.55397    0.34884    0.79997   1.00
C6       0.25435    0.35039    0.83325   1.00
C6       0.21295    0.34233    0.79162   1.00
C6       0.21517    0.22897    0.80941   1.00
C6       0.44232    0.19058    0.82432   1.00
H2       0.38624    0.18294    0.79746   1.00
C6       0.47178    0.17209    0.78932   1.00
H2       0.38082    0.28928    0.77698   1.00
C6       0.46490    0.37687    0.76357   1.00
C6       0.42794    0.25628    0.75520   1.00
H2       0.56062    0.34071    0.81595   1.00
C6       0.60223    0.33072    0.78779   1.00
C6       0.58660    0.42799    0.79706   1.00
C6       0.29555    0.34062    0.85068   1.00
C6       0.26717    0.42479    0.83547   1.00
H2       0.20088    0.31861    0.83751   1.00
H2       0.23906    0.39778    0.79285   1.00
C6       0.21859    0.32729    0.76873   1.00
C6       0.13579    0.31617    0.79582   1.00
H2       0.19402    0.21376    0.79418   1.00
C6       0.26186    0.19722    0.81229   1.00
C6       0.15384    0.18999    0.82436   1.00
H2       0.41205    0.20480    0.83389   1.00
H2       0.49451    0.21641    0.83014   1.00
H2       0.42120    0.13569    0.82624   1.00
H2       0.43380    0.11818    0.78741   1.00
H2       0.48923    0.19347    0.77429   1.00
H2       0.51501    0.17369    0.79719   1.00
H2       0.43183    0.37786    0.75164   1.00
H2       0.47083    0.41503    0.77466   1.00
H2       0.51449    0.39250    0.75674   1.00
H2       0.39756    0.20263    0.75941   1.00
H2       0.40258    0.26325    0.74205   1.00
H2       0.47839    0.26683    0.75031   1.00
H2       0.59072    0.32618    0.77159   1.00
H2       0.65602    0.36924    0.78971   1.00
H2       0.59807    0.28342    0.79314   1.00
H2       0.60055    0.44338    0.78129   1.00
H2       0.55359    0.44731    0.80176   1.00
H2       0.63327    0.45497    0.80606   1.00
H2       0.34905    0.38027    0.85047   1.00
H2       0.27519    0.34329    0.86547   1.00
H2       0.29291    0.29135    0.84987   1.00
H2       0.25476    0.43338    0.85083   1.00
H2       0.32013    0.46310    0.83274   1.00
H2       0.23522    0.43466    0.82525   1.00
H2       0.20020    0.35389    0.75902   1.00
H2       0.27148    0.34529    0.76439   1.00
H2       0.18871    0.27298    0.76527   1.00
H2       0.12717    0.32642    0.81138   1.00
H2       0.11715    0.34206    0.78589   1.00
H2       0.10462    0.26148    0.79298   1.00
H2       0.28832    0.21101    0.82683   1.00
H2       0.23293    0.14165    0.81122   1.00
H2       0.30013    0.21517    0.80040   1.00
H2       0.12635    0.13533    0.82105   1.00
H2       0.17108    0.19639    0.84010   1.00
H2       0.11698    0.20738    0.82307   1.00
C4       0.35279    0.19692    0.33227   1.00
C4       0.29502    0.16816    0.34550   1.00
C3       0.38043    0.26256    0.32336   1.00
C3       0.25542    0.19946    0.34967   1.00
C3       0.38449    0.15788    0.32732   1.00
C3       0.27529    0.10467    0.35525   1.00
C2       0.46766    0.25005    0.30487   1.00
C2       0.17794    0.10601    0.37208   1.00
C3       0.43603    0.28828    0.30995   1.00
C3       0.19888    0.16959    0.36274   1.00
C3       0.44133    0.18526    0.31405   1.00
C3       0.21642    0.07403    0.36768   1.00
H1       0.36113    0.29371    0.32641   1.00
H1       0.26623    0.24467    0.34323   1.00
C5       0.35939    0.09188    0.33571   1.00
C5       0.31393    0.07175    0.35242   1.00
H1       0.45350    0.33590    0.30386   1.00
H1       0.17251    0.19483    0.36532   1.00
H1       0.46472    0.15745    0.31108   1.00
H1       0.20045    0.02654    0.37351   1.00
O3       0.38248    0.05009    0.32835   1.00
O3       0.30416    0.01802    0.36466   1.00
Si1      0.34033    -0.00455   0.31036   1.00
Si1      0.34394    0.03457    0.38637   1.00
C6       0.40066    -0.03059   0.30566   1.00
C6       0.26534    -0.07097   0.32126   1.00
C6       0.32753    0.03341    0.28867   1.00
C6       0.39553    0.12085    0.39358   1.00
C6       0.27731    -0.00721   0.40391   1.00
C6       0.39229    -0.00682   0.38635   1.00
C6       0.47656    0.02813    0.30342   1.00
H2       0.39910    -0.05670   0.31975   1.00
C6       0.38943    -0.08246   0.28824   1.00
H2       0.28010    -0.06838   0.33714   1.00
C6       0.19975    -0.06444   0.32134   1.00
C6       0.24051    -0.14600   0.31444   1.00
H2       0.37842    0.07704    0.28609   1.00
C6       0.30715    -0.00900   0.26852   1.00
C6       0.27746    0.06248    0.28981   1.00
C6       0.45450    0.16929    0.37901   1.00
C6       0.36108    0.16211    0.40108   1.00
H2       0.42090    0.11673    0.40714   1.00
H2       0.25186    0.02291    0.40380   1.00
C6       0.22081    -0.08140   0.39818   1.00
C6       0.29727    -0.00981   0.42646   1.00
H2       0.35541    -0.05955   0.39025   1.00
C6       0.42252    -0.01117   0.36552   1.00
C6       0.45162    0.01698    0.40212   1.00
H2       0.49327    0.06175    0.31662   1.00
H2       0.48324    0.05917    0.28998   1.00
H2       0.51112    0.00772    0.30210   1.00
H2       0.41100    -0.11434   0.29261   1.00
H2       0.33592    -0.11627   0.28471   1.00
H2       0.41485    -0.05688   0.27418   1.00
H2       0.16215    -0.10042   0.33208   1.00
H2       0.21051    -0.01393   0.32603   1.00
H2       0.17578    -0.07547   0.30640   1.00
H2       0.28012    -0.15944   0.31663   1.00
H2       0.19673    -0.18254   0.32341   1.00
H2       0.22501    -0.15364   0.29852   1.00
H2       0.26234    -0.05930   0.27074   1.00
H2       0.29567    0.01644    0.25630   1.00
H2       0.34874    -0.01515   0.26281   1.00
H2       0.22491    0.02360    0.28649   1.00
H2       0.27713    0.08398    0.30446   1.00
H2       0.29212    0.10321    0.27865   1.00
H2       0.43626    0.18896    0.36694   1.00
H2       0.49354    0.21338    0.38732   1.00
H2       0.47972    0.14414    0.37208   1.00
H2       0.39909    0.21088    0.40764   1.00
H2       0.33632    0.17369    0.38882   1.00
H2       0.32346    0.13530    0.41295   1.00
H2       0.17642    -0.09849   0.40808   1.00
H2       0.20288    -0.08392   0.38264   1.00
H2       0.23887    -0.11774   0.39963   1.00
H2       0.33527    0.04047    0.43200   1.00
H2       0.25263    -0.02789   0.43632   1.00
H2       0.31723    -0.04453   0.42833   1.00
H2       0.45868    0.03906    0.35954   1.00
H2       0.44825    -0.04097   0.36659   1.00
H2       0.38177    -0.03650   0.35451   1.00
H2       0.47056    -0.01896   0.40270   1.00
H2       0.49457    0.06700    0.39820   1.00
H2       0.43490    0.01978    0.41741   1.00
C4       0.83990    0.64544    0.33294   1.00
C4       0.86985    0.70309    0.34622   1.00
C3       0.84503    0.58608    0.33595   1.00
C3       0.91301    0.70972    0.36273   1.00
C3       0.80355    0.64710    0.31546   1.00
C3       0.85614    0.75743    0.34299   1.00
C2       0.78080    0.53240    0.30485   1.00
C2       0.92968    0.82200    0.37210   1.00
C3       0.81665    0.53126    0.32224   1.00
C3       0.94161    0.76723    0.37544   1.00
C3       0.77419    0.59074    0.30202   1.00
C3       0.88780    0.81622    0.35544   1.00
H1       0.86934    0.58082    0.34822   1.00
H1       0.92528    0.67317    0.36595   1.00
C5       0.79651    0.70491    0.31157   1.00
C5       0.81146    0.75319    0.32728   1.00
H1       0.82241    0.48987    0.32512   1.00
H1       0.97196    0.76897    0.38726   1.00
H1       0.74665    0.59186    0.28985   1.00
H1       0.88096    0.85651    0.35213   1.00
O3       0.77160    0.71125    0.29313   1.00
O3       0.78694    0.79811    0.32639   1.00
Si1      0.82441    0.75366    0.27478   1.00
Si1      0.71951    0.78160    0.33963   1.00
C6       0.76271    0.73218    0.25556   1.00
C6       0.86384    0.84097    0.28098   1.00
C6       0.88101    0.72378    0.26891   1.00
C6       0.68272    0.70824    0.35522   1.00
C6       0.74805    0.85465    0.35478   1.00
C6       0.65832    0.77885    0.32257   1.00
C6       0.70717    0.65480    0.25401   1.00
H2       0.73547    0.75788    0.26069   1.00
C6       0.78433    0.75632    0.23309   1.00
H2       0.82613    0.84231    0.29098   1.00
C6       0.93185    0.87344    0.29338   1.00
C6       0.87645    0.89333    0.26368   1.00
H2       0.84664    0.66869    0.26801   1.00
C6       0.91876    0.74561    0.24799   1.00
C6       0.93856    0.73538    0.28443   1.00
C6       0.65949    0.63762    0.34503   1.00
C6       0.71874    0.70857    0.37555   1.00
H2       0.63572    0.70600    0.36026   1.00
H2       0.78295    0.85119    0.36549   1.00
C6       0.79123    0.92476    0.34376   1.00
C6       0.69360    0.86074    0.36779   1.00
H2       0.67384    0.83237    0.32016   1.00
C6       0.65749    0.75028    0.30099   1.00
C6       0.58218    0.74326    0.32969   1.00
H2       0.68079    0.63527    0.26844   1.00
H2       0.72975    0.62388    0.24959   1.00
H2       0.66813    0.64663    0.24284   1.00
H2       0.74647    0.76588    0.22584   1.00
H2       0.83337    0.80296    0.23199   1.00
H2       0.78732    0.71779    0.22389   1.00
H2       0.94297    0.92241    0.29986   1.00
H2       0.92923    0.84154    0.30608   1.00
H2       0.97492    0.88271    0.28377   1.00
H2       0.82920    0.88077    0.25581   1.00
H2       0.89627    0.94482    0.26974   1.00
H2       0.91345    0.89530    0.25267   1.00
H2       0.94551    0.80095    0.24617   1.00
H2       0.95616    0.72879    0.24628   1.00
H2       0.88345    0.72227    0.23544   1.00
H2       0.98480    0.78455    0.28222   1.00
H2       0.92359    0.73326    0.30013   1.00
H2       0.95264    0.69602    0.28248   1.00
H2       0.70176    0.62796    0.34330   1.00
H2       0.62102    0.59634    0.35435   1.00
H2       0.63679    0.63346    0.33017   1.00
H2       0.68533    0.66394    0.38475   1.00
H2       0.76542    0.70706    0.37300   1.00
H2       0.73096    0.75303    0.38487   1.00
H2       0.81614    0.96597    0.35484   1.00
H2       0.83167    0.92536    0.33455   1.00
H2       0.75992    0.93680    0.33393   1.00
H2       0.66217    0.81452    0.37655   1.00
H2       0.71852    0.90263    0.37867   1.00
H2       0.66024    0.87108    0.35831   1.00
H2       0.64503    0.69715    0.30142   1.00
H2       0.62098    0.75406    0.29102   1.00
H2       0.70734    0.77980    0.29402   1.00
H2       0.55140    0.75399    0.31916   1.00
H2       0.55974    0.68793    0.33049   1.00
H2       0.57715    0.76143    0.34454   1.00
C4       0.80532    0.15984    0.33293   1.00
C4       0.83309    0.12993    0.34619   1.00
C3       0.73948    0.15197    0.33541   1.00
C3       0.79556    0.08421    0.36212   1.00
C3       0.84474    0.19906    0.31601   1.00
C3       0.90224    0.14637    0.34358   1.00
C2       0.75151    0.21913    0.30486   1.00
C2       0.89243    0.07039    0.37209   1.00
C3       0.71312    0.18045    0.32171   1.00
C3       0.82457    0.05573    0.37484   1.00
C3       0.81773    0.22845    0.30257   1.00
C3       0.92959    0.11486    0.35600   1.00
H1       0.70883    0.12551    0.34728   1.00
H1       0.74592    0.06991    0.36488   1.00
C5       0.91099    0.20893    0.31266   1.00
C5       0.94359    0.19363    0.32850   1.00
H1       0.66497    0.17264    0.32419   1.00
H1       0.79518    0.02345    0.38622   1.00
H1       0.84733    0.25803    0.29082   1.00
H1       0.97773    0.12378    0.35311   1.00
O3       0.94409    0.23681    0.29464   1.00
O3       1.01345    0.22042    0.32831   1.00
Si1      0.93782    0.18694    0.27587   1.00
Si1      1.06104    0.28679    0.34239   1.00
C6       0.97871    0.25130    0.25739   1.00
C6       0.98737    0.14938    0.28215   1.00
C6       0.85269    0.12890    0.26895   1.00
C6       1.02045    0.31950    0.35794   1.00
C6       1.10563    0.25867    0.35767   1.00
C6       1.12024    0.35108    0.32621   1.00
C6       0.95447    0.30505    0.25607   1.00
H2       1.03092    0.27938    0.26311   1.00
C6       0.98487    0.23299    0.23481   1.00
H2       1.02443    0.18659    0.29270   1.00
C6       0.95233    0.07987    0.29379   1.00
C6       1.03046    0.14069    0.26508   1.00
H2       0.83034    0.16188    0.26813   1.00
C6       0.84052    0.09389    0.24767   1.00
C6       0.80626    0.06885    0.28371   1.00
C6       0.97252    0.34169    0.34756   1.00
C6       0.98304    0.28034    0.37773   1.00
H2       1.06356    0.36664    0.36364   1.00
H2       1.06664    0.22170    0.36783   1.00
C6       1.13611    0.21877    0.34656   1.00
C6       1.16356    0.31273    0.37150   1.00
H2       1.15985    0.33763    0.32398   1.00
C6       1.09461    0.35350    0.30445   1.00
C6       1.15768    0.42635    0.33416   1.00
H2       0.95865    0.32937    0.27072   1.00
H2       0.90142    0.28143    0.25108   1.00
H2       0.98574    0.34586    0.24540   1.00
H2       1.03256    0.27279    0.22819   1.00
H2       0.98448    0.18499    0.23336   1.00
H2       0.94383    0.22960    0.22528   1.00
H2       0.99052    0.06963    0.30048   1.00
H2       0.92085    0.07974    0.30628   1.00
H2       0.92078    0.03757    0.28364   1.00
H2       1.06489    0.18928    0.25780   1.00
H2       1.06275    0.12174    0.27123   1.00
H2       0.99759    0.10447    0.25356   1.00
H2       0.87090    0.06901    0.24588   1.00
H2       0.78697    0.05538    0.24529   1.00
H2       0.85285    0.13048    0.23547   1.00
H2       0.81132    0.02393    0.28121   1.00
H2       0.81683    0.08207    0.29960   1.00
H2       0.75262    0.05324    0.28126   1.00
H2       0.92151    0.29851    0.34514   1.00
H2       0.96701    0.37812    0.35712   1.00
H2       0.99233    0.36648    0.33301   1.00
H2       0.96917    0.31150    0.38707   1.00
H2       0.93610    0.23308    0.37450   1.00
H2       1.01521    0.26846    0.38720   1.00
H2       1.15234    0.19363    0.35758   1.00
H2       1.09826    0.17877    0.33677   1.00
H2       1.18023    0.25231    0.33728   1.00
H2       1.14619    0.34186    0.38036   1.00
H2       1.18049    0.28763    0.38233   1.00
H2       1.20792    0.34825    0.36259   1.00
H2       1.05264    0.36408    0.30465   1.00
H2       1.13542    0.39203    0.29504   1.00
H2       1.07671    0.30474    0.29698   1.00
H2       1.20003    0.45939    0.32416   1.00
H2       1.12320    0.44696    0.33486   1.00
H2       1.17929    0.43033    0.34921   1.00
C4       0.80660    0.65138    0.83072   1.00
C4       0.83405    0.70762    0.84452   1.00
C3       0.74946    0.63386    0.81804   1.00
C3       0.80346    0.74806    0.84837   1.00
C3       0.83692    0.60932    0.82962   1.00
C3       0.89561    0.72504    0.85513   1.00
C2       0.75204    0.53484    0.80394   1.00
C2       0.89190    0.81956    0.87301   1.00
C3       0.72266    0.57699    0.80511   1.00
C3       0.83190    0.80289    0.86208   1.00
C3       0.80991    0.55293    0.81619   1.00
C3       0.92182    0.77864    0.86952   1.00
H1       0.72578    0.66205    0.81779   1.00
H1       0.75940    0.73861    0.84143   1.00
C5       0.89419    0.62404    0.84187   1.00
C5       0.93038    0.68861    0.85148   1.00
H1       0.68095    0.56653    0.79640   1.00
H1       0.80788    0.83071    0.86413   1.00
H1       0.83334    0.52434    0.81515   1.00
H1       0.96346    0.78767    0.87793   1.00
O3       0.91611    0.57733    0.84330   1.00
O3       0.99616    0.71270    0.85839   1.00
Si1      0.88845    0.52163    0.86171   1.00
Si1      1.05974    0.76820    0.84466   1.00
C6       0.92379    0.47235    0.85290   1.00
C6       0.92869    0.56548    0.88419   1.00
C6       0.79863    0.47276    0.86295   1.00
C6       1.04116    0.79711    0.82193   1.00
C6       1.10354    0.83724    0.86131   1.00
C6       1.11255    0.73343    0.83959   1.00
C6       0.91202    0.45228    0.82988   1.00
H2       0.97845    0.50785    0.85436   1.00
C6       0.91038    0.40595    0.86434   1.00
H2       0.97517    0.60907    0.87836   1.00
C6       0.89284    0.59622    0.89723   1.00
C6       0.95299    0.52999    0.89980   1.00
H2       0.78490    0.45743    0.84715   1.00
C6       0.76697    0.40507    0.87556   1.00
C6       0.75678    0.50763    0.86975   1.00
C6       0.99663    0.74280    0.80563   1.00
C6       1.01454    0.84897    0.82295   1.00
H2       1.09151    0.82671    0.81504   1.00
H2       1.06945    0.85796    0.86295   1.00
C6       1.11496    0.81909    0.88334   1.00
C6       1.17361    0.89750    0.85402   1.00
H2       1.14296    0.74377    0.85336   1.00
C6       1.07597    0.65453    0.83687   1.00
C6       1.16483    0.76456    0.82171   1.00
H2       0.93020    0.49716    0.82018   1.00
H2       0.85798    0.41823    0.82663   1.00
H2       0.93979    0.42647    0.82531   1.00
H2       0.95499    0.39951    0.86309   1.00
H2       0.89992    0.40682    0.88039   1.00
H2       0.86756    0.36005    0.85790   1.00
H2       0.92866    0.63362    0.90804   1.00
H2       0.87388    0.62296    0.88797   1.00
H2       0.85047    0.55667    0.90592   1.00
H2       0.98728    0.51518    0.89277   1.00
H2       0.98166    0.56441    0.91225   1.00
H2       0.90968    0.48490    0.90642   1.00
H2       0.78747    0.41445    0.89096   1.00
H2       0.71142    0.38074    0.87666   1.00
H2       0.77641    0.36738    0.86840   1.00
H2       0.75095    0.50702    0.88620   1.00
H2       0.77926    0.56026    0.86494   1.00
H2       0.70547    0.48039    0.86326   1.00
H2       0.94238    0.71991    0.80885   1.00
H2       1.00524    0.76640    0.79064   1.00
H2       1.00875    0.70208    0.80446   1.00
H2       1.01471    0.86916    0.80787   1.00
H2       0.96250    0.82562    0.82859   1.00
H2       1.04669    0.89293    0.83246   1.00
H2       1.13176    0.86315    0.89337   1.00
H2       1.06778    0.77793    0.88978   1.00
H2       1.15346    0.80360    0.88383   1.00
H2       1.17004    0.91504    0.83890   1.00
H2       1.19090    0.94120    0.86423   1.00
H2       1.21295    0.88303    0.85384   1.00
H2       1.04158    0.63721    0.82387   1.00
H2       1.11245    0.63674    0.83497   1.00
H2       1.04606    0.62960    0.85029   1.00
H2       1.20122    0.74616    0.82209   1.00
H2       1.13923    0.75064    0.80700   1.00
H2       1.19459    0.82001    0.82260   1.00
C4       0.35061    0.16341    0.83149   1.00
C4       0.29314    0.13331    0.84483   1.00
C3       0.35547    0.20393    0.81444   1.00
C3       0.23235    0.13552    0.84142   1.00
C3       0.40617    0.15183    0.83507   1.00
C3       0.29602    0.09909    0.86266   1.00
C2       0.46706    0.21966    0.80465   1.00
C2       0.17854    0.06986    0.87230   1.00
C3       0.41189    0.23098    0.80132   1.00
C3       0.17685    0.10523    0.85487   1.00
C3       0.46320    0.18063    0.82187   1.00
C3       0.23846    0.06641    0.87555   1.00
H1       0.31828    0.21518    0.81110   1.00
H1       0.22642    0.15882    0.82900   1.00
C5       0.40455    0.11180    0.85185   1.00
C5       0.35600    0.09708    0.86746   1.00
H1       0.41236    0.25948    0.78915   1.00
H1       0.13443    0.10896    0.85172   1.00
H1       0.50351    0.17346    0.82494   1.00
H1       0.23973    0.03843    0.88755   1.00
O3       0.45237    0.09135    0.85333   1.00
O3       0.36495    0.07647    0.88639   1.00
Si1      0.43532    0.01729    0.84432   1.00
Si1      0.39528    0.13232    0.90472   1.00
C6       0.51757    0.02809    0.84745   1.00
C6       0.37611    -0.04568   0.86085   1.00
C6       0.41106    0.00604    0.81853   1.00
C6       0.41250    0.21614    0.89965   1.00
C6       0.33211    0.09551    0.92350   1.00
C6       0.46919    0.13392    0.91383   1.00
C6       0.57830    0.09757    0.83978   1.00
H2       0.52273    0.02948    0.86394   1.00
C6       0.53433    -0.02779   0.84003   1.00
H2       0.38624    -0.01758   0.87508   1.00
C6       0.29831    -0.07571   0.85657   1.00
C6       0.38417    -0.10890   0.86578   1.00
H2       0.45022    0.05375    0.81176   1.00
C6       0.41404    -0.05249   0.80673   1.00
C6       0.34038    -0.00202   0.81230   1.00
C6       0.46287    0.25633    0.88200   1.00
C6       0.35190    0.23061    0.89780   1.00
H2       0.43859    0.24316    0.91346   1.00
H2       0.28948    0.09922    0.91725   1.00
C6       0.30329    0.01775    0.92767   1.00
C6       0.34822    0.13137    0.94467   1.00
H2       0.44967    0.08991    0.92394   1.00
C6       0.51288    0.12208    0.89782   1.00
C6       0.52059    0.19681    0.92677   1.00
H2       0.57753    0.14095    0.84674   1.00
H2       0.57653    0.10238    0.82333   1.00
H2       0.62742    0.10232    0.84367   1.00
H2       0.57186    -0.02938   0.85011   1.00
H2       0.48986    -0.07865   0.83973   1.00
H2       0.55661    -0.01716   0.82485   1.00
H2       0.26800    -0.10247   0.86992   1.00
H2       0.28606    -0.03612   0.85303   1.00
H2       0.28117    -0.11219   0.84407   1.00
H2       0.43467    -0.09343   0.87187   1.00
H2       0.34768    -0.14128   0.87736   1.00
H2       0.37550    -0.14028   0.85231   1.00
H2       0.38496    -0.10124   0.81457   1.00
H2       0.39367    -0.05874   0.79133   1.00
H2       0.46626    -0.04138   0.80481   1.00
H2       0.29923    -0.05498   0.81305   1.00
H2       0.32517    0.02748    0.82163   1.00
H2       0.34252    0.01507    0.79666   1.00
H2       0.43735    0.24353    0.86733   1.00
H2       0.48452    0.31124    0.88410   1.00
H2       0.50544    0.24686    0.88128   1.00
H2       0.37087    0.28552    0.89755   1.00
H2       0.32268    0.20967    0.88395   1.00
H2       0.31703    0.21036    0.91065   1.00
H2       0.25697    -0.00288   0.93687   1.00
H2       0.28939    -0.01155   0.91356   1.00
H2       0.33987    0.00833    0.93572   1.00
H2       0.36684    0.18591    0.94328   1.00
H2       0.30207    0.11001    0.95399   1.00
H2       0.38608    0.12435    0.95293   1.00
H2       0.53344    0.16182    0.88626   1.00
H2       0.55537    0.11984    0.90487   1.00
H2       0.48171    0.07361    0.89024   1.00
H2       0.55827    0.18704    0.93405   1.00
H2       0.54826    0.24242    0.91739   1.00
H2       0.49492    0.20811    0.93887   1.00
C4       0.83624    0.18737    0.83169   1.00
C4       0.86627    0.15983    0.84499   1.00
C3       0.78802    0.14872    0.81642   1.00
C3       0.85587    0.09279    0.84316   1.00
C3       0.85592    0.25769    0.83340   1.00
C3       0.90907    0.20105    0.86113   1.00
C2       0.78041    0.24763    0.80472   1.00
C2       0.93007    0.10843    0.87223   1.00
C3       0.76114    0.17806    0.80322   1.00
C3       0.88636    0.06754    0.85651   1.00
C3       0.82724    0.28602    0.82020   1.00
C3       0.94162    0.17565    0.87388   1.00
H1       0.77084    0.09806    0.81448   1.00
H1       0.82618    0.06048    0.83199   1.00
C5       0.90388    0.29918    0.84836   1.00
C5       0.91970    0.26754    0.86437   1.00
H1       0.72683    0.14771    0.79237   1.00
H1       0.87653    0.01846    0.85456   1.00
H1       0.84041    0.33606    0.82197   1.00
H1       0.97552    0.20727    0.88453   1.00
O3       0.93117    0.36888    0.84780   1.00
O3       0.94936    0.30286    0.88204   1.00
Si1      1.00325    0.41654    0.83605   1.00
Si1      0.90129    0.28938    0.90191   1.00
C6       1.00237    0.49390    0.83766   1.00
C6       1.06865    0.41886    0.85115   1.00
C6       1.00258    0.39229    0.81056   1.00
C6       0.81373    0.22777    0.90011   1.00
C6       0.93976    0.26406    0.92046   1.00
C6       0.91134    0.36869    0.90926   1.00
C6       0.93368    0.49031    0.83161   1.00
H2       1.00770    0.50394    0.85396   1.00
C6       1.05985    0.56073    0.82748   1.00
H2       1.04577    0.40849    0.86623   1.00
C6       1.08970    0.36361    0.84746   1.00
C6       1.13747    0.48780    0.85310   1.00
H2       0.95457    0.38662    0.80498   1.00
C6       1.05964    0.44554    0.79626   1.00
C6       1.00075    0.32341    0.80573   1.00
C6       0.77073    0.23694    0.88314   1.00
C6       0.79112    0.15011    0.90035   1.00
H2       0.79361    0.23500    0.91436   1.00
H2       0.92875    0.21365    0.91544   1.00
C6       1.01935    0.30755    0.92191   1.00
C6       0.91205    0.25524    0.94264   1.00
H2       0.95895    0.39272    0.91784   1.00
C6       0.92258    0.41976    0.89182   1.00
C6       0.85624    0.36883    0.92359   1.00
H2       0.89088    0.45171    0.84042   1.00
H2       0.92226    0.47809    0.81554   1.00
H2       0.93569    0.53883    0.83450   1.00
H2       1.06951    0.60518    0.83651   1.00
H2       1.10789    0.56120    0.82604   1.00
H2       1.04552    0.56877    0.81235   1.00
H2       1.11928    0.36146    0.86026   1.00
H2       1.04562    0.31272    0.84596   1.00
H2       1.12120    0.37503    0.83389   1.00
H2       1.12925    0.52858    0.85860   1.00
H2       1.17158    0.48375    0.86406   1.00
H2       1.16422    0.50301    0.83858   1.00
H2       1.11028    0.46314    0.80262   1.00
H2       1.05810    0.42446    0.78120   1.00
H2       1.05316    0.48930    0.79359   1.00
H2       1.05176    0.32969    0.80516   1.00
H2       0.97173    0.28340    0.81663   1.00
H2       0.97724    0.30416    0.79091   1.00
H2       0.77573    0.21680    0.86864   1.00
H2       0.71657    0.20941    0.88708   1.00
H2       0.78512    0.29013    0.88099   1.00
H2       0.73577    0.11891    0.90203   1.00
H2       0.80451    0.13394    0.88640   1.00
H2       0.81321    0.13695    0.91305   1.00
H2       1.03919    0.28143    0.93126   1.00
H2       1.04311    0.31512    0.90699   1.00
H2       1.03633    0.35755    0.92862   1.00
H2       0.85663    0.22362    0.94317   1.00
H2       0.93271    0.23002    0.95206   1.00
H2       0.92674    0.30443    0.94962   1.00
H2       0.87901    0.40027    0.88158   1.00
H2       0.93234    0.46894    0.89770   1.00
H2       0.96688    0.42936    0.88294   1.00
H2       0.87343    0.42005    0.92948   1.00
H2       0.80816    0.35213    0.91560   1.00
H2       0.84611    0.33575    0.93669   1.00
C4       -0.01722   0.47050    0.33523   1.00
C4       0.03912    0.49877    0.32146   1.00
C3       -0.06106   0.39937    0.33808   1.00
C3       0.05348    0.45893    0.30785   1.00
C3       -0.03164   0.51538    0.34664   1.00
C3       0.08411    0.57080    0.32116   1.00
C2       -0.13210   0.41735    0.36262   1.00
C2       0.15318    0.55991    0.29375   1.00
C3       -0.11715   0.37348    0.35130   1.00
C3       0.10929    0.48856    0.29451   1.00
C3       -0.08772   0.48826    0.36019   1.00
C3       0.13834    0.59988    0.30699   1.00
H1       -0.05338   0.36429    0.33068   1.00
H1       0.02357    0.40727    0.30715   1.00
C5       0.01022    0.58705    0.34451   1.00
C5       0.07449    0.61354    0.33484   1.00
H1       -0.14737   0.32156    0.35263   1.00
H1       0.11752    0.45718    0.28514   1.00
H1       -0.09631   0.52107    0.36870   1.00
H1       0.16744    0.65180    0.30607   1.00
O3       -0.01022   0.62974    0.35287   1.00
O3       0.12440    0.68085    0.33761   1.00
Si1      -0.05289   0.65568    0.33913   1.00
Si1      0.18575    0.69851    0.35372   1.00
C6       -0.07301   0.69533    0.35887   1.00
C6       0.00475    0.71624    0.32174   1.00
C6       -0.12731   0.58822    0.32821   1.00
C6       0.18696    0.63009    0.36625   1.00
C6       0.25953    0.74270    0.33885   1.00
C6       0.18512    0.75604    0.37159   1.00
C6       -0.10156   0.65262    0.37882   1.00
H2       -0.02293   0.73785    0.36292   1.00
C6       -0.11906   0.72782    0.35488   1.00
H2       0.05337    0.73508    0.32957   1.00
C6       0.01396    0.69063    0.30058   1.00
C6       -0.00114   0.78087    0.31708   1.00
H2       -0.15060   0.55392    0.34110   1.00
C6       -0.18230   0.60513    0.32016   1.00
C6       -0.12075   0.54443    0.31079   1.00
C6       0.12286    0.57991    0.37890   1.00
C6       0.20965    0.58485    0.35436   1.00
H2       0.22758    0.65653    0.37737   1.00
H2       0.25810    0.70349    0.32891   1.00
C6       0.26189    0.79858    0.32433   1.00
C6       0.32980    0.77583    0.35004   1.00
H2       0.21205    0.80540    0.36397   1.00
C6       0.11391    0.74653    0.37709   1.00
C6       0.22310    0.76516    0.39221   1.00
H2       -0.06697   0.63635    0.38480   1.00
H2       -0.15111   0.60709    0.37622   1.00
H2       -0.10773   0.68263    0.39076   1.00
H2       -0.10296   0.77245    0.36459   1.00
H2       -0.11671   0.74433    0.33927   1.00
H2       -0.17261   0.69272    0.35841   1.00
H2       0.06035    0.72959    0.29313   1.00
H2       0.01913    0.64551    0.30185   1.00
H2       -0.02884   0.67908    0.29055   1.00
H2       0.00210    0.80880    0.33091   1.00
H2       0.04057    0.81672    0.30734   1.00
H2       -0.04895   0.76710    0.30932   1.00
H2       -0.15999   0.64782    0.30953   1.00
H2       -0.22424   0.56162    0.31241   1.00
H2       -0.20612   0.61730    0.33253   1.00
H2       -0.11705   0.56678    0.29585   1.00
H2       -0.07691   0.53765    0.31242   1.00
H2       -0.16580   0.49342    0.31059   1.00
H2       0.08338    0.54072    0.36939   1.00
H2       0.13648    0.55364    0.39029   1.00
H2       0.10076    0.60612    0.38700   1.00
H2       0.21699    0.55142    0.36476   1.00
H2       0.17191    0.55213    0.34324   1.00
H2       0.25818    0.61535    0.34657   1.00
H2       0.30348    0.81473    0.31339   1.00
H2       0.21482    0.77912    0.31556   1.00
H2       0.26978    0.84370    0.33260   1.00
H2       0.33358    0.73968    0.36013   1.00
H2       0.37146    0.79290    0.33907   1.00
H2       0.33848    0.82024    0.35890   1.00
H2       0.08075    0.69731    0.38420   1.00
H2       0.11833    0.78653    0.38730   1.00
H2       0.08874    0.74956    0.36344   1.00
H2       0.22800    0.80916    0.40054   1.00
H2       0.19562    0.72037    0.40191   1.00
H2       0.27462    0.77412    0.38993   1.00
C4       0.48784    1.01764    0.33507   1.00
C4       0.45986    0.96124    0.32132   1.00
C3       0.46544    1.06597    0.33623   1.00
C3       0.41117    0.95108    0.30614   1.00
C3       0.54199    1.02736    0.34825   1.00
C3       0.48119    0.91178    0.32270   1.00
C2       0.54935    1.13222    0.36258   1.00
C2       0.40685    0.84670    0.29379   1.00
C3       0.49557    1.12190    0.34952   1.00
C3       0.38489    0.89506    0.29287   1.00
C3       0.57085    1.08340    0.36182   1.00
C3       0.45628    0.85731    0.30863   1.00
H1       0.42641    1.06182    0.32751   1.00
H1       0.39367    0.98430    0.30418   1.00
C5       0.56677    0.98088    0.34786   1.00
C5       0.52768    0.91717    0.33798   1.00
H1       0.47757    1.15547    0.34959   1.00
H1       0.34936    0.89001    0.28230   1.00
H1       0.60837    1.08865    0.37158   1.00
H1       0.47532    0.82481    0.30899   1.00
O3       0.62598    0.99646    0.35803   1.00
O3       0.53854    0.86353    0.34216   1.00
Si1      0.69885    1.03435    0.34605   1.00
Si1      0.48677    0.80387    0.35768   1.00
C6       0.75160    1.05011    0.36744   1.00
C6       0.70106    0.97365    0.32981   1.00
C6       0.71568    1.11116    0.33420   1.00
C6       0.41727    0.80930    0.36774   1.00
C6       0.45600    0.72940    0.34307   1.00
C6       0.53668    0.79941    0.37747   1.00
C6       0.73525    1.08156    0.38633   1.00
H2       0.73851    0.99864    0.37203   1.00
C6       0.83138    1.09077    0.36544   1.00
H2       0.66602    0.92583    0.33736   1.00
C6       0.67333    0.96693    0.30769   1.00
C6       0.76961    0.97315    0.32753   1.00
H2       0.70382    1.13671    0.34626   1.00
C6       0.79120    1.16171    0.32780   1.00
C6       0.67246    1.10871    0.31523   1.00
C6       0.43294    0.87510    0.37976   1.00
C6       0.35430    0.79175    0.35392   1.00
H2       0.39679    0.76844    0.37898   1.00
H2       0.42328    0.73424    0.33184   1.00
C6       0.51051    0.72171    0.33053   1.00
C6       0.41097    0.65974    0.35407   1.00
H2       0.55747    0.76909    0.37111   1.00
C6       0.60022    0.86805    0.38391   1.00
C6       0.49986    0.76283    0.39760   1.00
H2       0.68216    1.05031    0.39107   1.00
H2       0.74454    1.13284    0.38306   1.00
H2       0.76661    1.08483    0.39935   1.00
H2       0.85402    1.07148    0.37636   1.00
H2       0.84900    1.08674    0.35045   1.00
H2       0.85294    1.14499    0.36872   1.00
H2       0.66400    0.91909    0.30078   1.00
H2       0.62496    0.96624    0.30729   1.00
H2       0.70984    1.00850    0.29809   1.00
H2       0.78867    0.96770    0.34220   1.00
H2       0.76285    0.93001    0.31831   1.00
H2       0.80857    1.01973    0.32020   1.00
H2       0.81136    1.13634    0.31830   1.00
H2       0.79595    1.20547    0.31934   1.00
H2       0.82395    1.18342    0.34096   1.00
H2       0.69401    1.10287    0.30108   1.00
H2       0.61995    1.06772    0.31581   1.00
H2       0.67120    1.15626    0.31409   1.00
H2       0.43971    0.91610    0.36966   1.00
H2       0.39067    0.86479    0.38992   1.00
H2       0.47839    0.89380    0.38913   1.00
H2       0.31209    0.78807    0.36297   1.00
H2       0.36584    0.83047    0.34241   1.00
H2       0.33485    0.74268    0.34634   1.00
H2       0.48561    0.68049    0.31944   1.00
H2       0.54361    0.76809    0.32199   1.00
H2       0.54257    0.71015    0.34018   1.00
H2       0.36997    0.65968    0.36278   1.00
H2       0.38688    0.61838    0.34299   1.00
H2       0.44135    0.64750    0.36426   1.00
H2       0.58619    0.90426    0.38988   1.00
H2       0.63051    0.86030    0.39539   1.00
H2       0.63320    0.89146    0.37091   1.00
H2       0.53395    0.75421    0.40734   1.00
H2       0.48335    0.79327    0.40620   1.00
H2       0.45536    0.71300    0.39470   1.00
C4       0.52980    0.51217    0.33508   1.00
C4       0.50139    0.54015    0.32133   1.00
C3       0.60056    0.53477    0.33630   1.00
C3       0.53999    0.58907    0.30620   1.00
C3       0.48533    0.45780    0.34819   1.00
C3       0.43053    0.51858    0.32265   1.00
C2       0.58287    0.45065    0.36258   1.00
C2       0.43987    0.59315    0.29379   1.00
C3       0.62637    0.50464    0.34959   1.00
C3       0.51025    0.61534    0.29293   1.00
C3       0.51251    0.42894    0.36175   1.00
C3       0.40098    0.54350    0.30857   1.00
H1       0.63546    0.57395    0.32763   1.00
H1       0.59075    0.60674    0.30430   1.00
C5       0.41404    0.43281    0.34773   1.00
C5       0.38935    0.47186    0.33786   1.00
H1       0.67797    0.52279    0.34970   1.00
H1       0.54078    0.65104    0.28241   1.00
H1       0.48021    0.39126    0.37147   1.00
H1       0.34941    0.52430    0.30888   1.00
O3       0.37042    0.37343    0.35783   1.00
O3       0.32472    0.46073    0.34199   1.00
Si1      0.33580    0.30071    0.34578   1.00
Si1      0.31644    0.51219    0.35754   1.00
C6       0.29868    0.24767    0.36711   1.00
C6       0.27297    0.29846    0.32949   1.00
C6       0.39608    0.28426    0.33396   1.00
C6       0.39115    0.58173    0.36770   1.00
C6       0.27272    0.54292    0.34292   1.00
C6       0.26193    0.46195    0.37726   1.00
C6       0.34629    0.26395    0.38604   1.00
H2       0.26013    0.26055    0.37168   1.00
C6       0.25981    0.16792    0.36503   1.00
H2       0.25995    0.33330    0.33706   1.00
C6       0.29416    0.32647    0.30741   1.00
C6       0.20407    0.22981    0.32712   1.00
H2       0.43337    0.29610    0.34606   1.00
C6       0.37141    0.20886    0.32749   1.00
C6       0.43699    0.32777    0.31505   1.00
C6       0.44128    0.56613    0.37974   1.00
C6       0.43657    0.64490    0.35395   1.00
H2       0.37051    0.60196    0.37894   1.00
H2       0.31036    0.57585    0.33174   1.00
C6       0.21075    0.48843    0.33030   1.00
C6       0.24776    0.58765    0.35393   1.00
H2       0.21088    0.44108    0.37085   1.00
C6       0.26719    0.39847    0.38366   1.00
C6       0.26179    0.49847    0.39742   1.00
H2       0.36791    0.31697    0.39083   1.00
H2       0.38843    0.25487    0.38280   1.00
H2       0.31810    0.23239    0.39903   1.00
H2       0.21776    0.14505    0.37590   1.00
H2       0.23835    0.15042    0.35001   1.00
H2       0.29257    0.14648    0.36832   1.00
H2       0.25564    0.33572    0.30048   1.00
H2       0.34176    0.37493    0.30707   1.00
H2       0.29948    0.29016    0.29779   1.00
H2       0.17942    0.21053    0.34176   1.00
H2       0.16770    0.23652    0.31788   1.00
H2       0.21192    0.19103    0.31977   1.00
H2       0.32599    0.18868    0.31794   1.00
H2       0.41061    0.20436    0.31905   1.00
H2       0.36032    0.17598    0.34062   1.00
H2       0.40978    0.30632    0.30086   1.00
H2       0.44832    0.38022    0.31567   1.00
H2       0.48590    0.32923    0.31394   1.00
H2       0.47571    0.55961    0.36966   1.00
H2       0.47302    0.60832    0.38995   1.00
H2       0.41453    0.52056    0.38906   1.00
H2       0.47491    0.68707    0.36306   1.00
H2       0.46398    0.63362    0.34246   1.00
H2       0.40691    0.66430    0.34637   1.00
H2       0.19445    0.51335    0.31922   1.00
H2       0.22428    0.45553    0.32175   1.00
H2       0.16706    0.45615    0.33989   1.00
H2       0.28851    0.62862    0.36270   1.00
H2       0.23049    0.61176    0.34285   1.00
H2       0.20504    0.55705    0.36407   1.00
H2       0.31741    0.41259    0.38968   1.00
H2       0.22907    0.36797    0.39509   1.00
H2       0.25788    0.36567    0.37063   1.00
H2       0.21902    0.46417    0.40710   1.00
H2       0.30867    0.51502    0.40606   1.00
H2       0.25633    0.54290    0.39454   1.00
C4       0.18941    0.34805    0.16948   1.00
C4       0.16108    0.29168    0.15572   1.00
C3       0.15423    0.35237    0.18674   1.00
C3       0.09269    0.23710    0.15678   1.00
C3       0.25623    0.40399    0.16576   1.00
C3       0.20299    0.28905    0.13998   1.00
C2       0.24891    0.46530    0.19601   1.00
C2       0.10715    0.18030    0.12704   1.00
C3       0.18296    0.40952    0.19958   1.00
C3       0.06661    0.18260    0.14296   1.00
C3       0.28481    0.46061    0.17911   1.00
C3       0.17488    0.23519    0.12568   1.00
H1       0.10680    0.31402    0.19052   1.00
H1       0.05968    0.23553    0.16755   1.00
C5       0.29418    0.40289    0.14878   1.00
C5       0.27248    0.34039    0.13846   1.00
H1       0.15491    0.41001    0.21174   1.00
H1       0.01694    0.14424    0.14457   1.00
H1       0.33352    0.49951    0.17657   1.00
H1       0.20426    0.23631    0.11375   1.00
O3       0.35336    0.46119    0.14333   1.00
O3       0.31704    0.33207    0.12607   1.00
Si1      0.35088    0.51258    0.12641   1.00
Si1      0.35365    0.29090    0.13483   1.00
C6       0.43601    0.57909    0.12924   1.00
C6       0.33791    0.47263    0.10258   1.00
C6       0.29271    0.54030    0.13251   1.00
C6       0.33212    0.25625    0.15954   1.00
C6       0.32992    0.22473    0.11718   1.00
C6       0.44239    0.34590    0.13287   1.00
C6       0.46096    0.60104    0.15161   1.00
H2       0.46475    0.55551    0.12364   1.00
C6       0.46376    0.64753    0.11709   1.00
H2       0.35831    0.43860    0.10509   1.00
C6       0.26301    0.42606    0.09503   1.00
C6       0.37743    0.51725    0.08380   1.00
H2       0.30504    0.55543    0.14838   1.00
C6       0.30091    0.60463    0.12107   1.00
C6       0.21396    0.48819    0.13170   1.00
C6       0.34304    0.30576    0.17752   1.00
C6       0.26153    0.19050    0.16334   1.00
H2       0.36878    0.23909    0.16212   1.00
H2       0.27552    0.19136    0.11993   1.00
C6       0.33588    0.24536    0.09428   1.00
C6       0.36361    0.17930    0.11932   1.00
H2       0.45372    0.34153    0.11703   1.00
C6       0.46861    0.42332    0.13611   1.00
C6       0.49018    0.32908    0.14578   1.00
H2       0.45377    0.55773    0.16076   1.00
H2       0.43340    0.62342    0.15891   1.00
H2       0.51539    0.63860    0.15210   1.00
H2       0.51765    0.66806    0.11345   1.00
H2       0.43687    0.64133    0.10289   1.00
H2       0.46059    0.68686    0.12581   1.00
H2       0.26137    0.39354    0.08253   1.00
H2       0.23018    0.39192    0.10687   1.00
H2       0.24108    0.45642    0.08954   1.00
H2       0.43238    0.54481    0.08641   1.00
H2       0.36900    0.48572    0.07034   1.00
H2       0.36086    0.55377    0.08016   1.00
H2       0.30092    0.59819    0.10465   1.00
H2       0.25994    0.61516    0.12476   1.00
H2       0.34766    0.65035    0.12545   1.00
H2       0.19282    0.48494    0.11659   1.00
H2       0.20062    0.43687    0.13605   1.00
H2       0.18693    0.50423    0.14208   1.00
H2       0.30032    0.31479    0.17911   1.00
H2       0.34750    0.28402    0.19186   1.00
H2       0.38943    0.35485    0.17577   1.00
H2       0.25980    0.17009    0.17851   1.00
H2       0.21928    0.20037    0.16239   1.00
H2       0.25199    0.14977    0.15272   1.00
H2       0.30942    0.19992    0.08474   1.00
H2       0.31223    0.27639    0.09136   1.00
H2       0.38884    0.27392    0.08926   1.00
H2       0.36002    0.16074    0.13480   1.00
H2       0.33777    0.13438    0.10954   1.00
H2       0.41727    0.20706    0.11488   1.00
H2       0.45785    0.43418    0.15134   1.00
H2       0.52346    0.45417    0.13347   1.00
H2       0.44394    0.44045    0.12539   1.00
H2       0.54328    0.36027    0.14096   1.00
H2       0.48769    0.33898    0.16189   1.00
H2       0.47703    0.27600    0.14407   1.00
C4       0.64540    0.83910    0.16704   1.00
C4       0.70296    0.86914    0.15373   1.00
C3       0.58221    0.83522    0.16258   1.00
C3       0.70516    0.90375    0.13553   1.00
C3       0.65109    0.81219    0.18605   1.00
C3       0.76188    0.86453    0.15869   1.00
C2       0.53253    0.78060    0.19519   1.00
C2       0.82187    0.92988    0.12786   1.00
C3       0.52744    0.80715    0.17630   1.00
C3       0.76271    0.93274    0.12285   1.00
C3       0.59481    0.78292    0.19953   1.00
C3       0.82041    0.89661    0.14615   1.00
H1       0.57405    0.85247    0.14920   1.00
H1       0.66518    0.90929    0.13102   1.00
C5       0.71285    0.81444    0.19145   1.00
C5       0.76241    0.82852    0.17621   1.00
H1       0.48314    0.80618    0.17231   1.00
H1       0.76118    0.95663    0.10979   1.00
H1       0.59901    0.76212    0.21287   1.00
H1       0.86368    0.89660    0.15059   1.00
O3       0.72206    0.79906    0.21100   1.00
O3       0.81278    0.81186    0.17915   1.00
Si1      0.75987    0.86007    0.22767   1.00
Si1      0.80394    0.74250    0.16875   1.00
C6       0.74419    0.80745    0.24908   1.00
C6       0.84738    0.90526    0.22157   1.00
C6       0.72128    0.91081    0.23028   1.00
C6       0.73144    0.69342    0.15343   1.00
C6       0.87797    0.77250    0.15397   1.00
C6       0.80801    0.69192    0.18839   1.00
C6       0.66925    0.74689    0.25151   1.00
H2       0.77477    0.78360    0.24577   1.00
C6       0.76640    0.83884    0.27087   1.00
H2       0.85366    0.86684    0.21340   1.00
C6       0.87370    0.96763    0.20686   1.00
C6       0.90061    0.92996    0.23924   1.00
H2       0.66730    0.87241    0.23158   1.00
C6       0.73914    0.95625    0.24976   1.00
C6       0.72694    0.95972    0.21253   1.00
C6       0.65946    0.66681    0.16311   1.00
C6       0.72797    0.71921    0.13165   1.00
H2       0.73494    0.64781    0.15053   1.00
H2       0.87037    0.80034    0.14170   1.00
C6       0.94639    0.82538    0.16441   1.00
C6       0.89139    0.71808    0.14369   1.00
H2       0.86254    0.71393    0.19120   1.00
C6       0.77737    0.69556    0.20922   1.00
C6       0.77993    0.61437    0.18405   1.00
H2       0.65226    0.71467    0.23800   1.00
H2       0.63375    0.76550    0.25422   1.00
H2       0.66507    0.71391    0.26419   1.00
H2       0.78090    0.80774    0.27998   1.00
H2       0.80961    0.89049    0.27071   1.00
H2       0.72511    0.84015    0.27905   1.00
H2       0.92421    0.98170    0.20097   1.00
H2       0.84071    0.95646    0.19372   1.00
H2       0.87798    1.01220    0.21462   1.00
H2       0.89289    0.88761    0.24893   1.00
H2       0.95271    0.95255    0.23342   1.00
H2       0.89788    0.96851    0.24851   1.00
H2       0.79423    0.98865    0.25151   1.00
H2       0.71678    0.98934    0.24940   1.00
H2       0.71846    0.92532    0.26331   1.00
H2       0.77314    1.00951    0.21364   1.00
H2       0.72697    0.93977    0.19760   1.00
H2       0.68364    0.96849    0.21299   1.00
H2       0.64407    0.70531    0.16270   1.00
H2       0.62084    0.62256    0.15476   1.00
H2       0.65742    0.65081    0.17878   1.00
H2       0.68519    0.67926    0.12312   1.00
H2       0.72062    0.76313    0.13202   1.00
H2       0.77366    0.73267    0.12280   1.00
H2       0.98716    0.84949    0.15316   1.00
H2       0.94185    0.86626    0.17171   1.00
H2       0.96264    0.80160    0.17584   1.00
H2       0.84669    0.67992    0.13546   1.00
H2       0.93287    0.74237    0.13265   1.00
H2       0.90610    0.69207    0.15482   1.00
H2       0.72283    0.67717    0.20825   1.00
H2       0.78552    0.66598    0.22084   1.00
H2       0.80225    0.74797    0.21448   1.00
H2       0.79471    0.59118    0.19612   1.00
H2       0.72429    0.58633    0.18312   1.00
H2       0.80014    0.60650    0.16994   1.00
C4       0.15984    0.80532    0.16707   1.00
C4       0.12993    0.83309    0.15380   1.00
C3       0.15198    0.73948    0.16459   1.00
C3       0.08422    0.79556    0.13788   1.00
C3       0.19906    0.84474    0.18400   1.00
C3       0.14636    0.90224    0.15642   1.00
C2       0.21913    0.75151    0.19514   1.00
C2       0.07039    0.89243    0.12791   1.00
C3       0.18046    0.71312    0.17829   1.00
C3       0.05574    0.82457    0.12516   1.00
C3       0.22844    0.81773    0.19743   1.00
C3       0.11485    0.92959    0.14400   1.00
H1       0.12552    0.70883    0.15272   1.00
H1       0.06992    0.74593    0.13512   1.00
C5       0.20892    0.91098    0.18734   1.00
C5       0.19361    0.94359    0.17150   1.00
H1       0.17265    0.66498    0.17581   1.00
H1       0.02346    0.79518    0.11378   1.00
H1       0.25802    0.84733    0.20918   1.00
H1       0.12377    0.97773    0.14689   1.00
O3       0.23679    0.94408    0.20537   1.00
O3       0.22040    1.01345    0.17169   1.00
Si1      0.18691    0.93780    0.22414   1.00
Si1      0.28677    1.06105    0.15762   1.00
C6       0.25126    0.97869    0.24262   1.00
C6       0.14935    0.98734    0.21786   1.00
C6       0.12888    0.85266    0.23105   1.00
C6       0.31950    1.02047    0.14206   1.00
C6       0.25865    1.10564    0.14234   1.00
C6       0.35106    1.12024    0.17380   1.00
C6       0.30502    0.95446    0.24394   1.00
H2       0.27934    1.03090    0.23690   1.00
C6       0.23294    0.98484    0.26520   1.00
H2       0.18656    1.02441    0.20731   1.00
C6       0.07984    0.95230    0.20621   1.00
C6       0.14065    1.03043    0.23493   1.00
H2       0.16186    0.83032    0.23187   1.00
C6       0.09386    0.84048    0.25233   1.00
C6       0.06883    0.80623    0.21629   1.00
C6       0.34169    0.97253    0.15245   1.00
C6       0.28035    0.98306    0.12227   1.00
H2       0.36663    1.06358    0.13636   1.00
H2       0.22169    1.06665    0.13218   1.00
C6       0.21874    1.13610    0.15345   1.00
C6       0.31271    1.16357    0.12851   1.00
H2       0.33760    1.15985    0.17603   1.00
C6       0.35347    1.09460    0.19556   1.00
C6       0.42633    1.15769    0.16585   1.00
H2       0.32935    0.95864    0.22929   1.00
H2       0.28140    0.90140    0.24892   1.00
H2       0.34583    0.98573    0.25460   1.00
H2       0.27274    1.03253    0.27182   1.00
H2       0.18494    0.98444    0.26665   1.00
H2       0.22956    0.94380    0.27472   1.00
H2       0.06960    0.99049    0.19953   1.00
H2       0.07972    0.92083    0.19372   1.00
H2       0.03754    0.92075    0.21636   1.00
H2       0.18923    1.06486    0.24220   1.00
H2       0.12170    1.06272    0.22877   1.00
H2       0.10442    0.99755    0.24645   1.00
H2       0.06897    0.87087    0.25412   1.00
H2       0.05535    0.78693    0.25471   1.00
H2       0.13045    0.85282    0.26453   1.00
H2       0.02391    0.81129    0.21879   1.00
H2       0.08206    0.81682    0.20040   1.00
H2       0.05323    0.75260    0.21874   1.00
H2       0.29851    0.92152    0.15486   1.00
H2       0.37812    0.96703    0.14289   1.00
H2       0.36648    0.99235    0.16700   1.00
H2       0.31151    0.96919    0.11294   1.00
H2       0.23308    0.93611    0.12550   1.00
H2       0.26846    1.01523    0.11280   1.00
H2       0.19361    1.15234    0.14242   1.00
H2       0.17874    1.09825    0.16323   1.00
H2       0.25228    1.18022    0.16273   1.00
H2       0.34186    1.14621    0.11965   1.00
H2       0.28761    1.18050    0.11768   1.00
H2       0.34823    1.20792    0.13742   1.00
H2       0.36406    1.05264    0.19536   1.00
H2       0.39200    1.13541    0.20497   1.00
H2       0.30471    1.07670    0.20303   1.00
H2       0.45936    1.20004    0.17585   1.00
H2       0.44695    1.12321    0.16515   1.00
H2       0.43031    1.17931    0.15080   1.00
C4       1.01501    0.52175    0.66398   1.00
C4       0.95874    0.49373    0.67777   1.00
C3       1.02728    0.48209    0.64972   1.00
C3       0.91280    0.42270    0.67997   1.00
C3       1.06258    0.59322    0.66453   1.00
C3       0.94708    0.53870    0.69011   1.00
C2       1.13185    0.58174    0.63729   1.00
C2       0.84707    0.44100    0.70634   1.00
C3       1.08428    0.51114    0.63682   1.00
C3       0.85812    0.39705    0.69372   1.00
C3       1.11906    0.62175    0.65113   1.00
C3       0.89345    0.51169    0.70449   1.00
H1       0.99505    0.43097    0.64825   1.00
H1       0.91795    0.38749    0.67173   1.00
C5       1.05327    0.63577    0.67842   1.00
C5       0.98928    0.61030    0.68820   1.00
H1       1.09079    0.47985    0.62693   1.00
H1       0.82619    0.34524    0.69453   1.00
H1       1.15171    0.67337    0.65131   1.00
H1       0.88844    0.54434    0.71411   1.00
O3       1.10475    0.70208    0.68128   1.00
O3       0.97114    0.65450    0.69690   1.00
Si1      1.15993    0.72003    0.69953   1.00
Si1      0.92009    0.67297    0.68451   1.00
C6       1.21577    0.80576    0.69270   1.00
C6       1.11796    0.71447    0.72258   1.00
C6       1.20131    0.67153    0.69852   1.00
C6       0.88801    0.63303    0.66083   1.00
C6       0.85213    0.64922    0.70148   1.00
C6       0.96256    0.76229    0.68175   1.00
C6       1.23591    0.81895    0.66970   1.00
H2       1.18449    0.82922    0.69543   1.00
C6       1.28387    0.85065    0.70465   1.00
H2       1.07740    0.72391    0.71766   1.00
C6       1.08148    0.64437    0.73389   1.00
C6       1.15770    0.76863    0.73947   1.00
H2       1.21615    0.67613    0.68257   1.00
C6       1.26873    0.69821    0.71105   1.00
C6       1.15993    0.59308    0.70336   1.00
C6       0.94040    0.64211    0.64394   1.00
C6       0.83055    0.55626    0.66017   1.00
H2       0.86259    0.65995    0.65520   1.00
H2       0.82656    0.59365    0.70167   1.00
C6       0.87212    0.67177    0.72407   1.00
C6       0.79669    0.66813    0.69565   1.00
H2       0.95484    0.78040    0.69631   1.00
C6       1.04145    0.79878    0.67903   1.00
C6       0.93592    0.79298    0.66523   1.00
H2       1.19092    0.79870    0.65997   1.00
H2       1.26575    0.79529    0.66518   1.00
H2       1.26618    0.87352    0.66648   1.00
H2       1.29560    0.90372    0.70500   1.00
H2       1.28154    0.83424    0.72027   1.00
H2       1.32746    0.85078    0.69752   1.00
H2       1.04598    0.64362    0.74528   1.00
H2       1.05143    0.60215    0.72364   1.00
H2       1.11820    0.63459    0.74173   1.00
H2       1.17717    0.82043    0.73384   1.00
H2       1.12451    0.76273    0.75229   1.00
H2       1.20017    0.76368    0.74530   1.00
H2       1.26091    0.70639    0.72692   1.00
H2       1.28812    0.66260    0.71067   1.00
H2       1.30949    0.74551    0.70481   1.00
H2       1.15966    0.58278    0.71954   1.00
H2       1.10719    0.56865    0.69852   1.00
H2       1.18296    0.56683    0.69561   1.00
H2       0.95839    0.60589    0.64569   1.00
H2       0.91679    0.63333    0.62895   1.00
H2       0.98455    0.69331    0.64381   1.00
H2       0.80959    0.54190    0.64484   1.00
H2       0.84923    0.52208    0.66440   1.00
H2       0.78777    0.54591    0.67003   1.00
H2       0.82754    0.64514    0.73394   1.00
H2       0.91004    0.65914    0.72954   1.00
H2       0.89266    0.72643    0.72607   1.00
H2       0.77811    0.65234    0.68021   1.00
H2       0.75253    0.64228    0.70571   1.00
H2       0.81626    0.72290    0.69700   1.00
H2       1.05604    0.78283    0.66521   1.00
H2       1.06421    0.85418    0.67864   1.00
H2       1.06412    0.78697    0.69177   1.00
H2       0.95928    0.84818    0.66710   1.00
H2       0.94794    0.78352    0.64994   1.00
H2       0.88094    0.77186    0.66626   1.00
C4       0.50736    -0.01483   0.66391   1.00
C4       0.53550    0.04147    0.67769   1.00
C3       0.46119    -0.02305   0.64813   1.00
C3       0.51556    0.09178    0.67824   1.00
C3       0.52523    -0.06668   0.66608   1.00
C3       0.58659    0.04857    0.69175   1.00
C2       0.45009    -0.13189   0.63730   1.00
C2       0.59371    0.15297    0.70633   1.00
C3       0.43302    -0.08013   0.63526   1.00
C3       0.54430    0.14635    0.69204   1.00
C3       0.49724    -0.12323   0.65270   1.00
C3       0.61278    0.10229    0.70609   1.00
H1       0.44685    0.01232    0.64547   1.00
H1       0.47928    0.09002    0.66873   1.00
C5       0.57116    -0.06156   0.68154   1.00
C5       0.61089    0.00177    0.69156   1.00
H1       0.39950    -0.08356   0.62421   1.00
H1       0.52834    0.18153    0.69162   1.00
H1       0.51199    -0.15906   0.65408   1.00
H1       0.64609    0.10417    0.71689   1.00
O3       0.57942    -0.11661   0.68575   1.00
O3       0.66905    0.01504    0.70209   1.00
Si1      0.53372    -0.17040   0.70353   1.00
Si1      0.74318    0.06162    0.69134   1.00
C6       0.55858    -0.23155   0.69868   1.00
C6       0.56556    -0.12961   0.72703   1.00
C6       0.44511    -0.20522   0.70007   1.00
C6       0.74561    0.09542    0.66698   1.00
C6       0.78661    0.12869    0.70864   1.00
C6       0.78418    0.01290    0.69093   1.00
C6       0.55666    -0.25231   0.67590   1.00
H2       0.61252    -0.20398   0.70279   1.00
C6       0.52671    -0.30023   0.71089   1.00
H2       0.61810    -0.09203   0.72321   1.00
C6       0.53403    -0.08823   0.73651   1.00
C6       0.57054    -0.17213   0.74498   1.00
H2       0.43859    -0.22001   0.68409   1.00
C6       0.39657    -0.27154   0.71223   1.00
C6       0.41267    -0.15850   0.70291   1.00
C6       0.70450    0.04451    0.64954   1.00
C6       0.73305    0.15715    0.66470   1.00
H2       0.79911    0.11697    0.66278   1.00
H2       0.76066    0.15817    0.70737   1.00
C6       0.78065    0.10798    0.73154   1.00
C6       0.86385    0.17951    0.70451   1.00
H2       0.80515    0.01879    0.70618   1.00
C6       0.73733    -0.06550   0.68804   1.00
C6       0.84564    0.03508    0.67605   1.00
H2       0.58714    -0.20784   0.66634   1.00
H2       0.50454    -0.27854   0.67003   1.00
H2       0.57766    -0.28621   0.67403   1.00
H2       0.56455    -0.31632   0.71286   1.00
H2       0.50914    -0.29623   0.72590   1.00
H2       0.48350    -0.34179   0.70300   1.00
H2       0.56703    -0.05423   0.74846   1.00
H2       0.52835    -0.05592   0.72539   1.00
H2       0.48433    -0.12208   0.74330   1.00
H2       0.60084    -0.19554   0.74083   1.00
H2       0.59584    -0.13983   0.75815   1.00
H2       0.51999    -0.21192   0.74984   1.00
H2       0.40790    -0.26460   0.72844   1.00
H2       0.34284    -0.28666   0.71025   1.00
H2       0.40063    -0.31478   0.70692   1.00
H2       0.39857    -0.15702   0.71866   1.00
H2       0.44585    -0.10621   0.69822   1.00
H2       0.36610    -0.17808   0.69387   1.00
H2       0.65104    0.03082    0.64969   1.00
H2       0.72507    0.06751    0.63475   1.00
H2       0.70696    -0.00222   0.65038   1.00
H2       0.74568    0.17814    0.64934   1.00
H2       0.68010    0.14266    0.66738   1.00
H2       0.76498    0.19893    0.67494   1.00
H2       0.79906    0.15299    0.74124   1.00
H2       0.72768    0.07322    0.73584   1.00
H2       0.81036    0.08341    0.73506   1.00
H2       0.87269    0.19838    0.68895   1.00
H2       0.88251    0.22405    0.71444   1.00
H2       0.89486    0.15584    0.70741   1.00
H2       0.71103    -0.07811   0.67347   1.00
H2       0.76610    -0.09230   0.68916   1.00
H2       0.69893    -0.08573   0.69989   1.00
H2       0.87296    0.00777    0.67940   1.00
H2       0.82856    0.02428    0.66029   1.00
H2       0.88261    0.08930    0.67734   1.00
C4       0.47781    0.49266    0.66391   1.00
C4       0.50598    0.46452    0.67769   1.00
C3       0.51586    0.53907    0.64819   1.00
C3       0.57627    0.48467    0.67831   1.00
C3       0.40801    0.47455    0.66602   1.00
C3       0.46192    0.41320    0.69168   1.00
C2       0.41802    0.54992    0.63730   1.00
C2       0.55924    0.40628    0.70633   1.00
C3       0.48694    0.56724    0.63532   1.00
C3       0.60210    0.45592    0.69210   1.00
C3       0.37945    0.50253    0.65264   1.00
C3       0.48944    0.38699    0.70603   1.00
H1       0.56563    0.55360    0.64558   1.00
H1       0.61083    0.52113    0.66885   1.00
C5       0.36711    0.42837    0.68142   1.00
C5       0.39079    0.38869    0.69143   1.00
H1       0.51708    0.60093    0.62431   1.00
H1       0.65328    0.47205    0.69174   1.00
H1       0.32882    0.48761    0.65398   1.00
H1       0.45795    0.35351    0.71679   1.00
O3       0.30368    0.41985    0.68559   1.00
O3       0.34591    0.33035    0.70189   1.00
Si1      0.29519    0.46523    0.70338   1.00
Si1      0.31870    0.25638    0.69107   1.00
C6       0.20917    0.44016    0.69846   1.00
C6       0.30401    0.43321    0.72687   1.00
C6       0.34880    0.55391    0.70003   1.00
C6       0.35042    0.25435    0.66673   1.00
C6       0.34235    0.21292    0.70836   1.00
C6       0.22898    0.21514    0.69057   1.00
C6       0.19056    0.44226    0.67567   1.00
H2       0.18291    0.38617    0.70252   1.00
C6       0.17203    0.47170    0.71067   1.00
H2       0.28925    0.38075    0.72301   1.00
C6       0.37682    0.46484    0.73643   1.00
C6       0.25623    0.42785    0.74479   1.00
H2       0.34067    0.56058    0.68405   1.00
C6       0.33066    0.60216    0.71221   1.00
C6       0.42795    0.58655    0.70295   1.00
C6       0.34066    0.29555    0.64931   1.00
C6       0.42483    0.26718    0.66452   1.00
H2       0.31866    0.20088    0.66247   1.00
H2       0.39780    0.23904    0.70714   1.00
C6       0.32728    0.21855    0.73125   1.00
C6       0.31620    0.13577    0.70416   1.00
H2       0.21377    0.19397    0.70580   1.00
C6       0.19722    0.26181    0.68769   1.00
C6       0.19002    0.15381    0.67562   1.00
H2       0.20479    0.41200    0.66609   1.00
H2       0.21638    0.49446    0.66985   1.00
H2       0.13566    0.42113    0.67375   1.00
H2       0.11813    0.43371    0.71258   1.00
H2       0.19340    0.48913    0.72570   1.00
H2       0.17363    0.51492    0.70280   1.00
H2       0.37781    0.43177    0.74836   1.00
H2       0.41499    0.47078    0.72534   1.00
H2       0.39244    0.51443    0.74325   1.00
H2       0.20257    0.39747    0.74058   1.00
H2       0.26319    0.40248    0.75794   1.00
H2       0.26676    0.47830    0.74968   1.00
H2       0.32611    0.59064    0.72841   1.00
H2       0.36917    0.65595    0.71029   1.00
H2       0.28335    0.59799    0.70686   1.00
H2       0.44332    0.60050    0.71871   1.00
H2       0.44728    0.55356    0.69824   1.00
H2       0.45492    0.63324    0.69395   1.00
H2       0.38030    0.34906    0.64952   1.00
H2       0.34334    0.27520    0.63451   1.00
H2       0.29138    0.29291    0.65012   1.00
H2       0.43343    0.25479    0.64916   1.00
H2       0.46313    0.32015    0.66725   1.00
H2       0.43470    0.23524    0.67473   1.00
H2       0.35389    0.20016    0.74096   1.00
H2       0.34527    0.27144    0.73560   1.00
H2       0.27297    0.18866    0.73471   1.00
H2       0.32646    0.12716    0.68860   1.00
H2       0.34209    0.11713    0.71409   1.00
H2       0.26151    0.10458    0.70700   1.00
H2       0.21102    0.28829    0.67315   1.00
H2       0.14165    0.23288    0.68875   1.00
H2       0.21516    0.30008    0.69958   1.00
H2       0.13536    0.12631    0.67892   1.00
H2       0.19643    0.17106    0.65988   1.00
H2       0.20743    0.11696    0.67691   1.00
C4       0.47621    -0.02052   0.16603   1.00
C4       0.50480    0.03729    0.17926   1.00
C3       0.50442    -0.06360   0.16330   1.00
C3       0.56771    0.06138    0.18962   1.00
C3       0.41665    -0.03599   0.15459   1.00
C3       0.46890    0.07337    0.18246   1.00
C2       0.41730    -0.13443   0.13825   1.00
C2       0.55996    0.15551    0.20538   1.00
C3       0.47605    -0.11876   0.14971   1.00
C3       0.59425    0.11847    0.20247   1.00
C3       0.38807    -0.09263   0.14125   1.00
C3       0.49794    0.13250    0.19479   1.00
H1       0.54628    -0.05631   0.17116   1.00
H1       0.59632    0.03843    0.18804   1.00
C5       0.38588    0.00503    0.15662   1.00
C5       0.40456    0.05073    0.17324   1.00
H1       0.49897    -0.14784   0.14826   1.00
H1       0.63968    0.13322    0.20971   1.00
H1       0.34426    -0.10424   0.13357   1.00
H1       0.47375    0.16027    0.19590   1.00
O3       0.33573    -0.00293   0.14321   1.00
O3       0.36307    0.07617    0.17921   1.00
Si1      0.35602    0.04487    0.12297   1.00
Si1      0.31292    0.04192    0.19871   1.00
C6       0.27516    0.00213    0.11124   1.00
C6       0.37664    0.12740    0.13085   1.00
C6       0.41850    0.04115    0.10788   1.00
C6       0.31631    -0.02442   0.21183   1.00
C6       0.33725    0.11142    0.21511   1.00
C6       0.22907    0.01417    0.19045   1.00
C6       0.23983    -0.07762   0.11053   1.00
H2       0.24415    0.01309    0.12157   1.00
C6       0.26359    0.02379    0.08964   1.00
H2       0.34824    0.11689    0.14503   1.00
C6       0.45252    0.17943    0.13636   1.00
C6       0.35251    0.16854    0.11751   1.00
H2       0.39903    -0.01372   0.10690   1.00
C6       0.42652    0.06719    0.08548   1.00
C6       0.49380    0.07404    0.11589   1.00
C6       0.30266    -0.08912   0.19954   1.00
C6       0.37823    -0.00695   0.22611   1.00
H2       0.27341    -0.04207   0.22229   1.00
H2       0.38784    0.12358    0.22031   1.00
C6       0.34704    0.17852    0.20514   1.00
C6       0.29319    0.09914    0.23459   1.00
H2       0.22525    0.06036    0.19063   1.00
C6       0.21196    -0.01252   0.16822   1.00
C6       0.16869    -0.03914   0.20382   1.00
H2       0.23538    -0.09913   0.12566   1.00
H2       0.26845    -0.09412   0.10102   1.00
H2       0.18807    -0.10030   0.10447   1.00
H2       0.21197    0.01597    0.08852   1.00
H2       0.29892    0.07706    0.08621   1.00
H2       0.26836    -0.00661   0.07757   1.00
H2       0.45602    0.22237    0.14496   1.00
H2       0.47512    0.15664    0.14585   1.00
H2       0.48361    0.20010    0.12274   1.00
H2       0.29743    0.14021    0.11519   1.00
H2       0.36389    0.21647    0.12482   1.00
H2       0.37790    0.18112    0.10276   1.00
H2       0.43465    0.11893    0.08492   1.00
H2       0.46943    0.06742    0.07775   1.00
H2       0.38202    0.03393    0.07643   1.00
H2       0.52405    0.12801    0.11200   1.00
H2       0.49725    0.07027    0.13218   1.00
H2       0.51913    0.04852    0.10907   1.00
H2       0.34835    -0.08164   0.19177   1.00
H2       0.28647    -0.13275   0.20969   1.00
H2       0.26249    -0.10360   0.18832   1.00
H2       0.36832    -0.05136   0.23523   1.00
H2       0.42498    0.00821    0.21769   1.00
H2       0.38772    0.03351    0.23684   1.00
H2       0.37305    0.22144    0.21563   1.00
H2       0.37862    0.19167    0.19151   1.00
H2       0.29847    0.17442    0.20100   1.00
H2       0.28537    0.05415    0.24292   1.00
H2       0.31876    0.14254    0.24494   1.00
H2       0.24343    0.09307    0.23089   1.00
H2       0.21655    -0.05771   0.16584   1.00
H2       0.16043    -0.02488   0.16393   1.00
H2       0.24674    0.02667    0.15783   1.00
H2       0.12028    -0.04420   0.19885   1.00
H2       0.16390    -0.08954   0.20288   1.00
H2       0.17504    -0.02392   0.21971   1.00
C4       1.01823    0.48812    0.16515   1.00
C4       0.96174    0.46023    0.17886   1.00
C3       1.07222    0.47344    0.16612   1.00
C3       0.95673    0.41996    0.19600   1.00
C3       1.02201    0.53415    0.14973   1.00
C3       0.90675    0.47280    0.17540   1.00
C2       1.13240    0.54924    0.13749   1.00
C2       0.84652    0.40696    0.20614   1.00
C3       1.12794    0.50343    0.15276   1.00
C3       0.90043    0.39351    0.20916   1.00
C3       1.07801    0.56286    0.13615   1.00
C3       0.85189    0.44812    0.18933   1.00
H1       1.07254    0.44035    0.17653   1.00
H1       0.99403    0.40901    0.19949   1.00
C5       0.96969    0.55096    0.14792   1.00
C5       0.90700    0.51038    0.15817   1.00
H1       1.16573    0.49127    0.15428   1.00
H1       0.89929    0.36422    0.22120   1.00
H1       1.07909    0.59431    0.12482   1.00
H1       0.81511    0.46121    0.18735   1.00
O3       0.97894    0.60358    0.13537   1.00
O3       0.84902    0.51166    0.15234   1.00
Si1      1.00937    0.68032    0.14460   1.00
Si1      0.79299    0.45009    0.13813   1.00
C6       1.01997    0.72267    0.12125   1.00
C6       0.94441    0.68062    0.15925   1.00
C6       1.08810    0.71057    0.15721   1.00
C6       0.80788    0.38293    0.13159   1.00
C6       0.71771    0.41758    0.15243   1.00
C6       0.78252    0.48777    0.11606   1.00
C6       1.05588    0.70445    0.10402   1.00
H2       0.96735    0.70203    0.11620   1.00
C6       1.05275    0.80226    0.12033   1.00
H2       0.89853    0.63911    0.15240   1.00
C6       0.94016    0.66279    0.18233   1.00
C6       0.93509    0.74455    0.15824   1.00
H2       1.11699    0.69835    0.14639   1.00
C6       1.13174    0.78926    0.16107   1.00
C6       1.09044    0.67782    0.17800   1.00
C6       0.87583    0.40139    0.12039   1.00
C6       0.79692    0.32800    0.14789   1.00
H2       0.76761    0.35431    0.12054   1.00
H2       0.72665    0.39245    0.16521   1.00
C6       0.70225    0.47160    0.16209   1.00
C6       0.65010    0.36264    0.14216   1.00
H2       0.74761    0.50536    0.12070   1.00
C6       0.84721    0.55285    0.10815   1.00
C6       0.74912    0.44123    0.09707   1.00
H2       1.02973    0.64961    0.10116   1.00
H2       1.10883    0.72105    0.10792   1.00
H2       1.05573    0.72870    0.08969   1.00
H2       1.02980    0.81632    0.10801   1.00
H2       1.04579    0.82377    0.13425   1.00
H2       1.10744    0.82801    0.11724   1.00
H2       0.89055    0.65055    0.18857   1.00
H2       0.94558    0.61832    0.18501   1.00
H2       0.97918    0.70561    0.19100   1.00
H2       0.92734    0.75568    0.14268   1.00
H2       0.89004    0.73620    0.16674   1.00
H2       0.97915    0.78942    0.16466   1.00
H2       1.10207    0.80815    0.16896   1.00
H2       1.17716    0.80271    0.17018   1.00
H2       1.15093    0.81718    0.14695   1.00
H2       1.08108    0.70237    0.19087   1.00
H2       1.05379    0.62384    0.17903   1.00
H2       1.14085    0.68339    0.18024   1.00
H2       0.91802    0.41697    0.13096   1.00
H2       0.87062    0.35718    0.11211   1.00
H2       0.89010    0.44207    0.10935   1.00
H2       0.79867    0.28515    0.14086   1.00
H2       0.83605    0.34821    0.15959   1.00
H2       0.74727    0.30654    0.15525   1.00
H2       0.66150    0.44753    0.17335   1.00
H2       0.74683    0.51152    0.16999   1.00
H2       0.68624    0.49585    0.15076   1.00
H2       0.65552    0.32152    0.13548   1.00
H2       0.60909    0.33930    0.15338   1.00
H2       0.63360    0.38504    0.13035   1.00
H2       0.88746    0.54240    0.10370   1.00
H2       0.83550    0.57525    0.09518   1.00
H2       0.86737    0.59134    0.11998   1.00
H2       0.73596    0.46769    0.08562   1.00
H2       0.78367    0.42672    0.09001   1.00
H2       0.70201    0.39480    0.10097   1.00
C4       0.51217    0.52979    0.16492   1.00
C4       0.54016    0.50139    0.17867   1.00
C3       0.53492    0.60058    0.16365   1.00
C3       0.58924    0.54004    0.19375   1.00
C3       0.45765    0.48529    0.15185   1.00
C3       0.51842    0.43048    0.17740   1.00
C2       0.45064    0.58286    0.13742   1.00
C2       0.59316    0.43988    0.20621   1.00
C3       0.50479    0.62639    0.15036   1.00
C3       0.61551    0.51029    0.20702   1.00
C3       0.42878    0.51248    0.13829   1.00
C3       0.54334    0.40094    0.19148   1.00
H1       0.57422    0.63549    0.17228   1.00
H1       0.60704    0.59083    0.19562   1.00
C5       0.43251    0.41398    0.15236   1.00
C5       0.47152    0.38924    0.16222   1.00
H1       0.52305    0.67800    0.15021   1.00
H1       0.65133    0.54086    0.21751   1.00
H1       0.39099    0.48015    0.12861   1.00
H1       0.52403    0.34935    0.19120   1.00
O3       0.37301    0.37038    0.14231   1.00
O3       0.46020    0.32452    0.15813   1.00
Si1      0.30039    0.33600    0.15441   1.00
Si1      0.51145    0.31597    0.14256   1.00
C6       0.24715    0.29880    0.13313   1.00
C6       0.29812    0.27323    0.17074   1.00
C6       0.28422    0.39651    0.16621   1.00
C6       0.58100    0.39050    0.13233   1.00
C6       0.54214    0.27223    0.15719   1.00
C6       0.46096    0.26135    0.12290   1.00
C6       0.26338    0.34627    0.11417   1.00
H2       0.25987    0.26013    0.12857   1.00
C6       0.16742    0.26010    0.13527   1.00
H2       0.33281    0.26004    0.16316   1.00
C6       0.32632    0.29457    0.19280   1.00
C6       0.22939    0.20445    0.17318   1.00
H2       0.29604    0.43372    0.15409   1.00
C6       0.20891    0.37206    0.17273   1.00
C6       0.32795    0.43752    0.18508   1.00
C6       0.56546    0.44064    0.12027   1.00
C6       0.64433    0.43593    0.14603   1.00
H2       0.60106    0.36969    0.12109   1.00
H2       0.57521    0.30993    0.16833   1.00
C6       0.48766    0.21043    0.16987   1.00
C6       0.58665    0.24702    0.14617   1.00
H2       0.44004    0.21034    0.12934   1.00
C6       0.39752    0.26673    0.11652   1.00
C6       0.49726    0.26094    0.10272   1.00
H2       0.31634    0.36774    0.10934   1.00
H2       0.25444    0.38851    0.11739   1.00
H2       0.23167    0.31802    0.10121   1.00
H2       0.14437    0.21797    0.12443   1.00
H2       0.15001    0.23879    0.15031   1.00
H2       0.14607    0.29293    0.13198   1.00
H2       0.33553    0.25603    0.19974   1.00
H2       0.37485    0.34211    0.19308   1.00
H2       0.29016    0.30007    0.20243   1.00
H2       0.20995    0.17969    0.15856   1.00
H2       0.23608    0.16809    0.18243   1.00
H2       0.19075    0.21247    0.18054   1.00
H2       0.18872    0.32671    0.18231   1.00
H2       0.20459    0.41139    0.18115   1.00
H2       0.17594    0.36093    0.15963   1.00
H2       0.30657    0.41045    0.19930   1.00
H2       0.38034    0.44872    0.18443   1.00
H2       0.32953    0.48650    0.18617   1.00
H2       0.55912    0.47521    0.13034   1.00
H2       0.60759    0.47222    0.11002   1.00
H2       0.51980    0.41390    0.11099   1.00
H2       0.68647    0.47414    0.13688   1.00
H2       0.63323    0.46350    0.15751   1.00
H2       0.66368    0.40624    0.15362   1.00
H2       0.51260    0.19413    0.18095   1.00
H2       0.45492    0.22413    0.17843   1.00
H2       0.45523    0.16668    0.16031   1.00
H2       0.62760    0.28765    0.13736   1.00
H2       0.61078    0.22976    0.15725   1.00
H2       0.55589    0.20425    0.13606   1.00
H2       0.41171    0.31692    0.11048   1.00
H2       0.36687    0.22854    0.10513   1.00
H2       0.36486    0.25760    0.12958   1.00
H2       0.46282    0.21812    0.09308   1.00
H2       0.51385    0.30777    0.09405   1.00
H2       0.54165    0.25538    0.10558   1.00
C4       0.64624    0.80976    0.66734   1.00
C4       0.70405    0.83830    0.65412   1.00
C3       0.60485    0.83957    0.67070   1.00
C3       0.72988    0.90253    0.64441   1.00
C3       0.62899    0.74855    0.67812   1.00
C3       0.73831    0.80098    0.65023   1.00
C2       0.53223    0.75073    0.69509   1.00
C2       0.82217    0.89321    0.62796   1.00
C3       0.54965    0.81112    0.68427   1.00
C3       0.78692    0.92897    0.63154   1.00
C3       0.57233    0.71996    0.69146   1.00
C3       0.79743    0.82984    0.63791   1.00
H1       0.61345    0.88269    0.66334   1.00
H1       0.70829    0.93218    0.64649   1.00
C5       0.66827    0.71613    0.67545   1.00
C5       0.71386    0.73538    0.65879   1.00
H1       0.52184    0.83521    0.68620   1.00
H1       0.80296    0.97541    0.62478   1.00
H1       0.55942    0.67502    0.69866   1.00
H1       0.82391    0.80446    0.63632   1.00
O3       0.65872    0.66401    0.68827   1.00
O3       0.73748    0.69303    0.65213   1.00
Si1      0.70632    0.68084    0.70845   1.00
Si1      0.70218    0.64535    0.63224   1.00
C6       0.66155    0.59885    0.71943   1.00
C6       0.78814    0.69987    0.70030   1.00
C6       0.70473    0.74279    0.72434   1.00
C6       0.63715    0.65243    0.61959   1.00
C6       0.77136    0.66952    0.61571   1.00
C6       0.67207    0.56022    0.63961   1.00
C6       0.58199    0.56556    0.72020   1.00
H2       0.67131    0.56811    0.70864   1.00
C6       0.68239    0.58404    0.74073   1.00
H2       0.77689    0.67291    0.68585   1.00
C6       0.84184    0.77581    0.69543   1.00
C6       0.82771    0.67255    0.71308   1.00
H2       0.65015    0.72475    0.72542   1.00
C6       0.73052    0.74765    0.74666   1.00
C6       0.73961    0.81905    0.71707   1.00
C6       0.57307    0.63940    0.63211   1.00
C6       0.65644    0.71629    0.60599   1.00
H2       0.61839    0.61057    0.60871   1.00
H2       0.78503    0.72106    0.61108   1.00
C6       0.83759    0.67614    0.62537   1.00
C6       0.75786    0.62728    0.59577   1.00
H2       0.71733    0.55481    0.63909   1.00
C6       0.64519    0.54132    0.66178   1.00
C6       0.61768    0.50211    0.62583   1.00
H2       0.56075    0.56340    0.70516   1.00
H2       0.56671    0.59415    0.73016   1.00
H2       0.55793    0.51309    0.72575   1.00
H2       0.67295    0.53175    0.74124   1.00
H2       0.73591    0.61778    0.74426   1.00
H2       0.65264    0.58860    0.75304   1.00
H2       0.88419    0.77886    0.68661   1.00
H2       0.82024    0.80055    0.68637   1.00
H2       0.86316    0.80522    0.70930   1.00
H2       0.79801    0.61729    0.71488   1.00
H2       0.87522    0.68329    0.70561   1.00
H2       0.84089    0.69632    0.72806   1.00
H2       0.78164    0.75411    0.74699   1.00
H2       0.73217    0.79038    0.75492   1.00
H2       0.69631    0.70257    0.75536   1.00
H2       0.79366    0.84755    0.72100   1.00
H2       0.73607    0.82444    0.70086   1.00
H2       0.71536    0.84489    0.72437   1.00
H2       0.58194    0.68471    0.64040   1.00
H2       0.52968    0.62551    0.62204   1.00
H2       0.55746    0.59786    0.64291   1.00
H2       0.61250    0.70870    0.59704   1.00
H2       0.67290    0.76236    0.61489   1.00
H2       0.69656    0.72574    0.59513   1.00
H2       0.88068    0.70226    0.61495   1.00
H2       0.85154    0.70631    0.63930   1.00
H2       0.83192    0.62650    0.62892   1.00
H2       0.71341    0.62174    0.58763   1.00
H2       0.80140    0.65292    0.58547   1.00
H2       0.75020    0.57654    0.59887   1.00
H2       0.60094    0.54723    0.66450   1.00
H2       0.63130    0.48892    0.66550   1.00
H2       0.68485    0.57422    0.67235   1.00
H2       0.61106    0.45257    0.63022   1.00
H2       0.56799    0.49883    0.62703   1.00
H2       0.63290    0.50977    0.60993   1.00
C4       0.16366    0.35096    0.66838   1.00
C4       0.13360    0.29342    0.65506   1.00
C3       0.20938    0.35888    0.68427   1.00
C3       0.14133    0.23532    0.65745   1.00
C3       0.14660    0.40333    0.66601   1.00
C3       0.09360    0.29342    0.63833   1.00
C2       0.21962    0.46718    0.69530   1.00
C2       0.06990    0.17842    0.62775   1.00
C3       0.23631    0.41517    0.69744   1.00
C3       0.11090    0.17966    0.64407   1.00
C3       0.17532    0.46034    0.67922   1.00
C3       0.06099    0.23559    0.62553   1.00
H1       0.22464    0.32411    0.68670   1.00
H1       0.16893    0.23153    0.66906   1.00
C5       0.10121    0.39855    0.65042   1.00
C5       0.08580    0.35075    0.63454   1.00
H1       0.26874    0.41791    0.70875   1.00
H1       0.11873    0.13929    0.64644   1.00
H1       0.16410    0.49842    0.67698   1.00
H1       0.02901    0.23456    0.61441   1.00
O3       0.07610    0.44282    0.65028   1.00
O3       0.05913    0.35761    0.61641   1.00
Si1      0.00313    0.42079    0.66113   1.00
Si1      0.10997    0.39089    0.59700   1.00
C6       0.00729    0.50049    0.65898   1.00
C6       -0.06154   0.35902    0.64556   1.00
C6       -0.00024   0.39684    0.68678   1.00
C6       0.19650    0.41393    0.59990   1.00
C6       0.07205    0.32733    0.57837   1.00
C6       0.10376    0.46183    0.58902   1.00
C6       0.07637    0.56416    0.66555   1.00
H2       0.00424    0.50543    0.64259   1.00
C6       -0.04986   0.51229    0.66825   1.00
H2       -0.03682   0.37082    0.63073   1.00
C6       -0.08561   0.28211    0.64948   1.00
C6       -0.12868   0.36182    0.64260   1.00
H2       0.04776    0.43813    0.69275   1.00
C6       -0.05800   0.39524    0.70027   1.00
C6       -0.00168   0.32847    0.69212   1.00
C6       0.23860    0.46547    0.61710   1.00
C6       0.21649    0.35695    0.60038   1.00
H2       0.21901    0.44095    0.58576   1.00
H2       0.08066    0.28678    0.58383   1.00
C6       -0.00712   0.29364    0.57602   1.00
C6       0.10262    0.34541    0.55648   1.00
H2       0.05727    0.43963    0.57992   1.00
C6       0.09221    0.50292    0.60600   1.00
C6       0.16163    0.51591    0.57511   1.00
H2       0.11951    0.56674    0.65735   1.00
H2       0.08556    0.56295    0.68178   1.00
H2       0.07659    0.61162    0.66230   1.00
H2       -0.05684   0.54809    0.65883   1.00
H2       -0.09895   0.46570    0.66932   1.00
H2       -0.03679   0.53458    0.68341   1.00
H2       -0.11427   0.25088    0.63649   1.00
H2       -0.04291   0.27346    0.65168   1.00
H2       -0.11890   0.26294    0.66273   1.00
H2       -0.11803   0.41141    0.63687   1.00
H2       -0.16225   0.32424    0.63143   1.00
H2       -0.15709   0.35116    0.65680   1.00
H2       -0.10810   0.36353    0.69342   1.00
H2       -0.05908   0.37533    0.71548   1.00
H2       -0.04999   0.44619    0.70267   1.00
H2       -0.05345   0.28490    0.69227   1.00
H2       0.02762    0.31610    0.68174   1.00
H2       0.01970    0.33196    0.70724   1.00
H2       0.23095    0.44011    0.63170   1.00
H2       0.29315    0.49048    0.61376   1.00
H2       0.22578    0.50557    0.61876   1.00
H2       0.27184    0.37939    0.59934   1.00
H2       0.20051    0.32740    0.61434   1.00
H2       0.19502    0.32185    0.58763   1.00
H2       -0.02722   0.24756    0.56672   1.00
H2       -0.03283   0.27814    0.59070   1.00
H2       -0.02162   0.32793    0.56883   1.00
H2       0.15789    0.36751    0.55658   1.00
H2       0.08173    0.29944    0.54710   1.00
H2       0.09045    0.38112    0.54905   1.00
H2       0.13458    0.52580    0.61669   1.00
H2       0.08493    0.54345    0.59969   1.00
H2       0.04639    0.46933    0.61447   1.00
H2       0.14687    0.55124    0.56872   1.00
H2       0.20897    0.54605    0.58357   1.00
H2       0.17224    0.49208    0.56233   1.00
C4       0.18737    0.83624    0.66831   1.00
C4       0.15983    0.86627    0.65501   1.00
C3       0.14872    0.78804    0.68359   1.00
C3       0.09280    0.85588    0.65685   1.00
C3       0.25769    0.85590    0.66659   1.00
C3       0.20104    0.90906    0.63887   1.00
C2       0.24763    0.78041    0.69528   1.00
C2       0.10843    0.93007    0.62777   1.00
C3       0.17806    0.76116    0.69678   1.00
C3       0.06755    0.88637    0.64349   1.00
C3       0.28602    0.82723    0.67980   1.00
C3       0.17564    0.94161    0.62612   1.00
H1       0.09807    0.77087    0.68553   1.00
H1       0.06049    0.82621    0.66801   1.00
C5       0.29917    0.90385    0.65163   1.00
C5       0.26753    0.91967    0.63563   1.00
H1       0.14772    0.72685    0.70763   1.00
H1       0.01847    0.87655    0.64544   1.00
H1       0.33605    0.84038    0.67802   1.00
H1       0.20726    0.97549    0.61546   1.00
O3       0.36887    0.93113    0.65219   1.00
O3       0.30284    0.94931    0.61795   1.00
Si1      0.41654    1.00322    0.66393   1.00
Si1      0.28933    0.90123    0.59808   1.00
C6       0.49390    1.00231    0.66232   1.00
C6       0.41887    1.06861    0.64884   1.00
C6       0.39231    1.00257    0.68942   1.00
C6       0.22772    0.81367    0.59989   1.00
C6       0.26402    0.93969    0.57953   1.00
C6       0.36863    0.91126    0.59073   1.00
C6       0.49030    0.93362    0.66837   1.00
H2       0.50392    1.00763    0.64602   1.00
C6       0.56074    1.05980    0.67250   1.00
H2       0.40848    1.04572    0.63375   1.00
C6       0.36363    1.08968    0.65253   1.00
C6       0.48782    1.13743    0.64687   1.00
H2       0.38664    0.95456    0.69501   1.00
C6       0.44559    1.05964    0.70372   1.00
C6       0.32344    1.00075    0.69426   1.00
C6       0.23688    0.77068    0.61686   1.00
C6       0.15006    0.79108    0.59966   1.00
H2       0.23493    0.79354    0.58564   1.00
H2       0.21361    0.92869    0.58456   1.00
C6       0.30751    1.01929    0.57808   1.00
C6       0.25517    0.91197    0.55736   1.00
H2       0.39266    0.95886    0.58215   1.00
C6       0.41971    0.92250    0.60817   1.00
C6       0.36875    0.85615    0.57641   1.00
H2       0.45168    0.89082    0.65957   1.00
H2       0.47809    0.92222    0.68444   1.00
H2       0.53881    0.93562    0.66548   1.00
H2       0.60519    1.06944    0.66346   1.00
H2       0.56122    1.10785    0.67393   1.00
H2       0.56879    1.04548    0.68763   1.00
H2       0.36148    1.11926    0.63972   1.00
H2       0.31274    1.04560    0.65403   1.00
H2       0.37507    1.12119    0.66609   1.00
H2       0.52859    1.12919    0.64137   1.00
H2       0.48377    1.17153    0.63592   1.00
H2       0.50304    1.16418    0.66139   1.00
H2       0.46319    1.11027    0.69736   1.00
H2       0.42451    1.05810    0.71878   1.00
H2       0.48934    1.05314    0.70639   1.00
H2       0.32974    1.05177    0.69482   1.00
H2       0.28343    0.97173    0.68337   1.00
H2       0.30421    0.97725    0.70908   1.00
H2       0.21676    0.77569    0.63137   1.00
H2       0.20934    0.71651    0.61292   1.00
H2       0.29008    0.78506    0.61901   1.00
H2       0.11885    0.73573    0.59798   1.00
H2       0.13390    0.80449    0.61361   1.00
H2       0.13689    0.81316    0.58696   1.00
H2       0.28139    1.03912    0.56873   1.00
H2       0.31510    1.04305    0.59300   1.00
H2       0.35751    1.03625    0.57136   1.00
H2       0.22355    0.85655    0.55682   1.00
H2       0.22996    0.93263    0.54794   1.00
H2       0.30436    0.92664    0.55038   1.00
H2       0.40022    0.87893    0.61841   1.00
H2       0.46889    0.93225    0.60229   1.00
H2       0.42933    0.96681    0.61705   1.00
H2       0.41996    0.87332    0.57051   1.00
H2       0.35205    0.80807    0.58440   1.00
H2       0.33567    0.84601    0.56330   1.00
