data_IRMOF10_interpen_symm_ligand3cp_label_l_1.

_audit_creation_method             'generated by an auxiliary program of Tobunporous'

_symmetry_space_group_name_H-M     'P 1'
_symmetry_Int_Tables_number        1
_symmetry_cell_setting             triclinic

_cell_length_a                    22.6523
_cell_length_b                    22.6523
_cell_length_c                    65.9502
_cell_angle_alpha                 90.0000
_cell_angle_beta                  90.0000
_cell_angle_gamma                 120.0000

loop_
_atom_site_label
_atom_site_fract_x
_atom_site_fract_y
_atom_site_fract_z
_atom_site_occupancy
O1       0.00000    0.00000    0.57470   1.00
Zn1      0.00000    0.00000    0.54560   1.00
Zn1      0.94843    0.04287    0.58357   1.00
Zn1      0.09443    0.05157    0.58357   1.00
Zn1      0.95713    0.90557    0.58357   1.00
O2       0.93860    0.02610    0.53560   1.00
O2       0.08750    0.06140    0.53560   1.00
O2       0.97390    0.91250    0.53560   1.00
O2       0.91300    0.07160    0.56150   1.00
O2       0.00463    0.12027    0.60077   1.00
O2       0.87413    0.98077    0.60037   1.00
O2       0.15860    0.08700    0.56150   1.00
O2       0.10663    0.12587    0.60037   1.00
O2       0.11563    0.99537    0.60077   1.00
O2       0.92840    0.84140    0.56150   1.00
O2       0.87973    0.88437    0.60077   1.00
O2       0.01923    0.89337    0.60037   1.00
C1       0.91390    0.06020    0.54330   1.00
C1       0.14630    0.08610    0.54330   1.00
C1       0.93980    0.85370    0.54330   1.00
C1       0.06663    0.14397    0.60637   1.00
C1       0.85603    0.92267    0.60637   1.00
C1       0.07733    0.93337    0.60637   1.00
O1       0.00000    0.00000    0.92530   1.00
Zn1      0.00000    0.00000    0.95440   1.00
Zn1      0.04287    0.94843    0.91643   1.00
Zn1      0.05157    0.09443    0.91643   1.00
Zn1      0.90557    0.95713    0.91643   1.00
O2       0.02610    0.93860    0.96440   1.00
O2       0.06140    0.08750    0.96440   1.00
O2       0.91250    0.97390    0.96440   1.00
O2       0.07160    0.91300    0.93850   1.00
O2       0.12027    0.00463    0.89923   1.00
O2       0.98077    0.87413    0.89963   1.00
O2       0.08700    0.15860    0.93850   1.00
O2       0.12587    0.10663    0.89963   1.00
O2       0.99537    0.11563    0.89923   1.00
O2       0.84140    0.92840    0.93850   1.00
O2       0.88437    0.87973    0.89923   1.00
O2       0.89337    0.01923    0.89963   1.00
C1       0.06020    0.91390    0.95670   1.00
C1       0.08610    0.14630    0.95670   1.00
C1       0.85370    0.93980    0.95670   1.00
C1       0.14397    0.06663    0.89363   1.00
C1       0.92267    0.85603    0.89363   1.00
C1       0.93337    0.07733    0.89363   1.00
O1       0.00000    0.00000    0.42530   1.00
Zn1      0.00000    0.00000    0.45440   1.00
Zn1      0.05157    0.95713    0.41643   1.00
Zn1      0.90557    0.94843    0.41643   1.00
Zn1      0.04287    0.09443    0.41643   1.00
O2       0.06140    0.97390    0.46440   1.00
O2       0.91250    0.93860    0.46440   1.00
O2       0.02610    0.08750    0.46440   1.00
O2       0.08700    0.92840    0.43850   1.00
O2       0.99537    0.87973    0.39923   1.00
O2       0.12587    0.01923    0.39963   1.00
O2       0.84140    0.91300    0.43850   1.00
O2       0.89337    0.87413    0.39963   1.00
O2       0.88437    0.00463    0.39923   1.00
O2       0.07160    0.15860    0.43850   1.00
O2       0.12027    0.11563    0.39923   1.00
O2       0.98077    0.10663    0.39963   1.00
C1       0.08610    0.93980    0.45670   1.00
C1       0.85370    0.91390    0.45670   1.00
C1       0.06020    0.14630    0.45670   1.00
C1       0.93337    0.85603    0.39363   1.00
C1       0.14397    0.07733    0.39363   1.00
C1       0.92267    0.06663    0.39363   1.00
O1       0.00000    0.00000    0.07470   1.00
Zn1      0.00000    0.00000    0.04560   1.00
Zn1      0.95713    0.05157    0.08357   1.00
Zn1      0.94843    0.90557    0.08357   1.00
Zn1      0.09443    0.04287    0.08357   1.00
O2       0.97390    0.06140    0.03560   1.00
O2       0.93860    0.91250    0.03560   1.00
O2       0.08750    0.02610    0.03560   1.00
O2       0.92840    0.08700    0.06150   1.00
O2       0.87973    0.99537    0.10077   1.00
O2       0.01923    0.12587    0.10037   1.00
O2       0.91300    0.84140    0.06150   1.00
O2       0.87413    0.89337    0.10037   1.00
O2       0.00463    0.88437    0.10077   1.00
O2       0.15860    0.07160    0.06150   1.00
O2       0.11563    0.12027    0.10077   1.00
O2       0.10663    0.98077    0.10037   1.00
C1       0.93980    0.08610    0.04330   1.00
C1       0.91390    0.85370    0.04330   1.00
C1       0.14630    0.06020    0.04330   1.00
C1       0.85603    0.93337    0.10637   1.00
C1       0.07733    0.14397    0.10637   1.00
C1       0.06663    0.92267    0.10637   1.00
O1       0.66667    0.33333    0.90803   1.00
Zn1      0.66667    0.33333    0.87893   1.00
Zn1      0.61510    0.37620    0.91690   1.00
Zn1      0.76110    0.38490    0.91690   1.00
Zn1      0.62380    0.23890    0.91690   1.00
O2       0.60527    0.35943    0.86893   1.00
O2       0.75417    0.39473    0.86893   1.00
O2       0.64057    0.24583    0.86893   1.00
O2       0.57967    0.40493    0.89483   1.00
O2       0.67130    0.45360    0.93410   1.00
O2       0.54080    0.31410    0.93370   1.00
O2       0.82527    0.42033    0.89483   1.00
O2       0.77330    0.45920    0.93370   1.00
O2       0.78230    0.32870    0.93410   1.00
O2       0.59507    0.17473    0.89483   1.00
O2       0.54640    0.21770    0.93410   1.00
O2       0.68590    0.22670    0.93370   1.00
C1       0.58057    0.39353    0.87663   1.00
C1       0.81297    0.41943    0.87663   1.00
C1       0.60647    0.18703    0.87663   1.00
C1       0.73330    0.47730    0.93970   1.00
C1       0.52270    0.25600    0.93970   1.00
C1       0.74400    0.26670    0.93970   1.00
O1       0.66667    0.33333    0.25863   1.00
Zn1      0.66667    0.33333    0.28773   1.00
Zn1      0.70953    0.28177    0.24977   1.00
Zn1      0.71823    0.42777    0.24977   1.00
Zn1      0.57223    0.29047    0.24977   1.00
O2       0.69277    0.27193    0.29773   1.00
O2       0.72807    0.42083    0.29773   1.00
O2       0.57917    0.30723    0.29773   1.00
O2       0.73827    0.24633    0.27183   1.00
O2       0.78693    0.33797    0.23257   1.00
O2       0.64743    0.20747    0.23297   1.00
O2       0.75367    0.49193    0.27183   1.00
O2       0.79253    0.43997    0.23297   1.00
O2       0.66203    0.44897    0.23257   1.00
O2       0.50807    0.26173    0.27183   1.00
O2       0.55103    0.21307    0.23257   1.00
O2       0.56003    0.35257    0.23297   1.00
C1       0.72687    0.24723    0.29003   1.00
C1       0.75277    0.47963    0.29003   1.00
C1       0.52037    0.27313    0.29003   1.00
C1       0.81063    0.39997    0.22697   1.00
C1       0.58933    0.18937    0.22697   1.00
C1       0.60003    0.41067    0.22697   1.00
O1       0.66667    0.33333    0.75863   1.00
Zn1      0.66667    0.33333    0.78773   1.00
Zn1      0.71823    0.29047    0.74977   1.00
Zn1      0.57223    0.28177    0.74977   1.00
Zn1      0.70953    0.42777    0.74977   1.00
O2       0.72807    0.30723    0.79773   1.00
O2       0.57917    0.27193    0.79773   1.00
O2       0.69277    0.42083    0.79773   1.00
O2       0.75367    0.26173    0.77183   1.00
O2       0.66203    0.21307    0.73257   1.00
O2       0.79253    0.35257    0.73297   1.00
O2       0.50807    0.24633    0.77183   1.00
O2       0.56003    0.20747    0.73297   1.00
O2       0.55103    0.33797    0.73257   1.00
O2       0.73827    0.49193    0.77183   1.00
O2       0.78693    0.44897    0.73257   1.00
O2       0.64743    0.43997    0.73297   1.00
C1       0.75277    0.27313    0.79003   1.00
C1       0.52037    0.24723    0.79003   1.00
C1       0.72687    0.47963    0.79003   1.00
C1       0.60003    0.18937    0.72697   1.00
C1       0.81063    0.41067    0.72697   1.00
C1       0.58933    0.39997    0.72697   1.00
O1       0.66667    0.33333    0.40803   1.00
Zn1      0.66667    0.33333    0.37893   1.00
Zn1      0.62380    0.38490    0.41690   1.00
Zn1      0.61510    0.23890    0.41690   1.00
Zn1      0.76110    0.37620    0.41690   1.00
O2       0.64057    0.39473    0.36893   1.00
O2       0.60527    0.24583    0.36893   1.00
O2       0.75417    0.35943    0.36893   1.00
O2       0.59507    0.42033    0.39483   1.00
O2       0.54640    0.32870    0.43410   1.00
O2       0.68590    0.45920    0.43370   1.00
O2       0.57967    0.17473    0.39483   1.00
O2       0.54080    0.22670    0.43370   1.00
O2       0.67130    0.21770    0.43410   1.00
O2       0.82527    0.40493    0.39483   1.00
O2       0.78230    0.45360    0.43410   1.00
O2       0.77330    0.31410    0.43370   1.00
C1       0.60647    0.41943    0.37663   1.00
C1       0.58057    0.18703    0.37663   1.00
C1       0.81297    0.39353    0.37663   1.00
C1       0.52270    0.26670    0.43970   1.00
C1       0.74400    0.47730    0.43970   1.00
C1       0.73330    0.25600    0.43970   1.00
O1       0.33333    0.66667    0.24137   1.00
Zn1      0.33333    0.66667    0.21227   1.00
Zn1      0.28177    0.70953    0.25023   1.00
Zn1      0.42777    0.71823    0.25023   1.00
Zn1      0.29047    0.57223    0.25023   1.00
O2       0.27193    0.69277    0.20227   1.00
O2       0.42083    0.72807    0.20227   1.00
O2       0.30723    0.57917    0.20227   1.00
O2       0.24633    0.73827    0.22817   1.00
O2       0.33797    0.78693    0.26743   1.00
O2       0.20747    0.64743    0.26703   1.00
O2       0.49193    0.75367    0.22817   1.00
O2       0.43997    0.79253    0.26703   1.00
O2       0.44897    0.66203    0.26743   1.00
O2       0.26173    0.50807    0.22817   1.00
O2       0.21307    0.55103    0.26743   1.00
O2       0.35257    0.56003    0.26703   1.00
C1       0.24723    0.72687    0.20997   1.00
C1       0.47963    0.75277    0.20997   1.00
C1       0.27313    0.52037    0.20997   1.00
C1       0.39997    0.81063    0.27303   1.00
C1       0.18937    0.58933    0.27303   1.00
C1       0.41067    0.60003    0.27303   1.00
O1       0.33333    0.66667    0.59197   1.00
Zn1      0.33333    0.66667    0.62107   1.00
Zn1      0.37620    0.61510    0.58310   1.00
Zn1      0.38490    0.76110    0.58310   1.00
Zn1      0.23890    0.62380    0.58310   1.00
O2       0.35943    0.60527    0.63107   1.00
O2       0.39473    0.75417    0.63107   1.00
O2       0.24583    0.64057    0.63107   1.00
O2       0.40493    0.57967    0.60517   1.00
O2       0.45360    0.67130    0.56590   1.00
O2       0.31410    0.54080    0.56630   1.00
O2       0.42033    0.82527    0.60517   1.00
O2       0.45920    0.77330    0.56630   1.00
O2       0.32870    0.78230    0.56590   1.00
O2       0.17473    0.59507    0.60517   1.00
O2       0.21770    0.54640    0.56590   1.00
O2       0.22670    0.68590    0.56630   1.00
C1       0.39353    0.58057    0.62337   1.00
C1       0.41943    0.81297    0.62337   1.00
C1       0.18703    0.60647    0.62337   1.00
C1       0.47730    0.73330    0.56030   1.00
C1       0.25600    0.52270    0.56030   1.00
C1       0.26670    0.74400    0.56030   1.00
O1       0.33333    0.66667    0.09197   1.00
Zn1      0.33333    0.66667    0.12107   1.00
Zn1      0.38490    0.62380    0.08310   1.00
Zn1      0.23890    0.61510    0.08310   1.00
Zn1      0.37620    0.76110    0.08310   1.00
O2       0.39473    0.64057    0.13107   1.00
O2       0.24583    0.60527    0.13107   1.00
O2       0.35943    0.75417    0.13107   1.00
O2       0.42033    0.59507    0.10517   1.00
O2       0.32870    0.54640    0.06590   1.00
O2       0.45920    0.68590    0.06630   1.00
O2       0.17473    0.57967    0.10517   1.00
O2       0.22670    0.54080    0.06630   1.00
O2       0.21770    0.67130    0.06590   1.00
O2       0.40493    0.82527    0.10517   1.00
O2       0.45360    0.78230    0.06590   1.00
O2       0.31410    0.77330    0.06630   1.00
C1       0.41943    0.60647    0.12337   1.00
C1       0.18703    0.58057    0.12337   1.00
C1       0.39353    0.81297    0.12337   1.00
C1       0.26670    0.52270    0.06030   1.00
C1       0.47730    0.74400    0.06030   1.00
C1       0.25600    0.73330    0.06030   1.00
O1       0.33333    0.66667    0.74137   1.00
Zn1      0.33333    0.66667    0.71227   1.00
Zn1      0.29047    0.71823    0.75023   1.00
Zn1      0.28177    0.57223    0.75023   1.00
Zn1      0.42777    0.70953    0.75023   1.00
O2       0.30723    0.72807    0.70227   1.00
O2       0.27193    0.57917    0.70227   1.00
O2       0.42083    0.69277    0.70227   1.00
O2       0.26173    0.75367    0.72817   1.00
O2       0.21307    0.66203    0.76743   1.00
O2       0.35257    0.79253    0.76703   1.00
O2       0.24633    0.50807    0.72817   1.00
O2       0.20747    0.56003    0.76703   1.00
O2       0.33797    0.55103    0.76743   1.00
O2       0.49193    0.73827    0.72817   1.00
O2       0.44897    0.78693    0.76743   1.00
O2       0.43997    0.64743    0.76703   1.00
C1       0.27313    0.75277    0.70997   1.00
C1       0.24723    0.52037    0.70997   1.00
C1       0.47963    0.72687    0.70997   1.00
C1       0.18937    0.60003    0.77303   1.00
C1       0.41067    0.81063    0.77303   1.00
C1       0.39997    0.58933    0.77303   1.00
C4       0.87069    0.69982    0.49677   1.00
C4       0.84779    0.64794    0.48156   1.00
C3       0.93426    0.76151    0.49591   1.00
C3       0.88866    0.64976    0.46497   1.00
C3       0.82853    0.68952    0.51403   1.00
C3       0.78030    0.59087    0.48281   1.00
C2       0.91479    0.80070    0.52863   1.00
C2       0.79830    0.54026    0.45169   1.00
C3       0.95591    0.81041    0.51145   1.00
C3       0.86441    0.59774    0.45033   1.00
C3       0.85074    0.74005    0.52936   1.00
C3       0.75789    0.53759    0.46839   1.00
H1       0.96658    0.77283    0.48393   1.00
H1       0.93738    0.68870    0.46310   1.00
C5       0.76435    0.62897    0.51582   1.00
C5       0.73571    0.58689    0.49852   1.00
H1       1.00262    0.85383    0.51007   1.00
H1       0.89603    0.60205    0.43857   1.00
H1       0.81915    0.73282    0.54137   1.00
H1       0.71106    0.49506    0.47023   1.00
O3       0.72915    0.61407    0.53389   1.00
O3       0.66679    0.53981    0.49777   1.00
Si1      0.73832    0.56615    0.55065   1.00
Si1      0.61649    0.55873    0.48515   1.00
C6       0.69242    0.57748    0.57044   1.00
C6       0.69490    0.48178    0.54142   1.00
C6       0.82411    0.59675    0.55760   1.00
C6       0.65325    0.63770    0.47224   1.00
C6       0.57754    0.49191    0.46753   1.00
C6       0.55331    0.55194    0.50212   1.00
C6       0.71063    0.65287    0.57467   1.00
H2       0.64058    0.55218    0.56440   1.00
C6       0.68670    0.54505    0.59191   1.00
H2       0.65700    0.48267    0.53140   1.00
C6       0.73524    0.45687    0.52802   1.00
C6       0.65351    0.42234    0.55675   1.00
H2       0.84239    0.65073    0.56043   1.00
C6       0.83740    0.56801    0.57764   1.00
C6       0.87465    0.59377    0.54184   1.00
C6       0.69623    0.70428    0.48486   1.00
C6       0.69368    0.64710    0.45209   1.00
H2       0.60838    0.63983    0.46727   1.00
H2       0.61864    0.50127    0.45706   1.00
C6       0.55134    0.41834    0.47602   1.00
C6       0.51848    0.48840    0.45434   1.00
H2       0.51665    0.49736    0.50262   1.00
C6       0.57607    0.57233    0.52457   1.00
C6       0.51148    0.58741    0.49624   1.00
H2       0.70546    0.67722    0.56102   1.00
H2       0.76292    0.68354    0.58020   1.00
H2       0.67651    0.65494    0.58602   1.00
H2       0.63729    0.53073    0.59873   1.00
H2       0.69125    0.49952    0.59139   1.00
H2       0.72545    0.58065    0.60243   1.00
H2       0.70022    0.41024    0.51986   1.00
H2       0.76605    0.49418    0.51654   1.00
H2       0.76838    0.44562    0.53728   1.00
H2       0.61591    0.42980    0.56496   1.00
H2       0.62486    0.37338    0.54892   1.00
H2       0.68728    0.41767    0.56765   1.00
H2       0.81057    0.51233    0.57750   1.00
H2       0.89167    0.58612    0.57998   1.00
H2       0.82159    0.58510    0.59089   1.00
H2       0.87366    0.54510    0.54232   1.00
H2       0.86445    0.60148    0.52631   1.00
H2       0.92695    0.63360    0.54519   1.00
H2       0.74850    0.71534    0.48697   1.00
H2       0.69887    0.74812    0.47704   1.00
H2       0.67419    0.70156    0.49974   1.00
H2       0.70473    0.69453    0.44451   1.00
H2       0.74238    0.64976    0.45471   1.00
H2       0.66473    0.60623    0.44126   1.00
H2       0.53885    0.38204    0.46357   1.00
H2       0.59030    0.41592    0.48519   1.00
H2       0.50572    0.40077    0.48532   1.00
H2       0.53301    0.53735    0.44725   1.00
H2       0.50531    0.45133    0.44206   1.00
H2       0.47248    0.47260    0.46334   1.00
H2       0.61510    0.62587    0.52603   1.00
H2       0.53315    0.56287    0.53430   1.00
H2       0.59696    0.54188    0.53049   1.00
H2       0.46754    0.57092    0.50629   1.00
H2       0.54252    0.64286    0.49740   1.00
H2       0.49154    0.57462    0.48084   1.00
C4       0.30767    0.17291    0.49894   1.00
C4       0.35811    0.19989    0.48329   1.00
C3       0.31094    0.13590    0.51587   1.00
C3       0.41345    0.18727    0.48203   1.00
C3       0.24995    0.18226    0.49758   1.00
C3       0.35366    0.24206    0.46797   1.00
C2       0.20187    0.11708    0.52942   1.00
C2       0.45717    0.25505    0.45090   1.00
C3       0.25935    0.10840    0.53063   1.00
C3       0.46199    0.21460    0.46639   1.00
C3       0.19908    0.15522    0.51284   1.00
C3       0.40143    0.26668    0.45187   1.00
H1       0.35103    0.12803    0.51800   1.00
H1       0.41989    0.15752    0.49236   1.00
C5       0.24357    0.21881    0.48105   1.00
C5       0.30130    0.25898    0.46868   1.00
H1       0.26424    0.08167    0.54246   1.00
H1       0.50126    0.20425    0.46635   1.00
H1       0.15893    0.16395    0.51196   1.00
H1       0.39503    0.29314    0.44034   1.00
O3       0.18298    0.21801    0.47798   1.00
O3       0.30375    0.30994    0.45655   1.00
Si1      0.12567    0.16161    0.46274   1.00
Si1      0.34712    0.38880    0.46432   1.00
C6       0.05987    0.17930    0.46838   1.00
C6       0.15567    0.18599    0.43774   1.00
C6       0.10187    0.07683    0.46910   1.00
C6       0.39149    0.40553    0.48759   1.00
C6       0.40558    0.42973    0.44456   1.00
C6       0.29065    0.42105    0.46490   1.00
C6       0.04679    0.18474    0.49148   1.00
H2       0.08032    0.23082    0.46237   1.00
C6       -0.01283   0.13628    0.45867   1.00
H2       0.18979    0.24082    0.43938   1.00
C6       0.19979    0.15776    0.42812   1.00
C6       0.10355    0.17781    0.42084   1.00
H2       0.09312    0.07581    0.48543   1.00
C6       0.03384    0.01868    0.45979   1.00
C6       0.15421    0.05122    0.46596   1.00
C6       0.34979    0.36875    0.50705   1.00
C6       0.45895    0.40233    0.48869   1.00
H2       0.40876    0.45947    0.48996   1.00
H2       0.44047    0.40982    0.44575   1.00
C6       0.37601    0.41195    0.42252   1.00
C6       0.45054    0.50916    0.44560   1.00
H2       0.28841    0.43467    0.44914   1.00
C6       0.21531    0.36943    0.47072   1.00
C6       0.31154    0.48699    0.47764   1.00
H2       0.09320    0.22242    0.49917   1.00
H2       0.02818    0.13580    0.49916   1.00
H2       0.00907    0.20087    0.49363   1.00
H2       -0.03543   0.16853    0.45619   1.00
H2       -0.01194   0.11409    0.44414   1.00
H2       -0.04798   0.09461    0.46851   1.00
H2       0.22680    0.18732    0.41469   1.00
H2       0.23870    0.16115    0.43851   1.00
H2       0.16811    0.10475    0.42339   1.00
H2       0.07650    0.20480    0.42478   1.00
H2       0.12933    0.19951    0.40643   1.00
H2       0.06644    0.12412    0.41818   1.00
H2       0.03361    0.02309    0.44329   1.00
H2       0.02568    -0.03206   0.46339   1.00
H2       -0.01021   0.01947    0.46597   1.00
H2       0.15172    0.03163    0.45067   1.00
H2       0.20668    0.09027    0.46858   1.00
H2       0.14306    0.00960    0.47650   1.00
H2       0.34229    0.31753    0.50851   1.00
H2       0.37684    0.39688    0.52066   1.00
H2       0.29997    0.36502    0.50726   1.00
H2       0.48514    0.42311    0.50310   1.00
H2       0.44961    0.35041    0.48765   1.00
H2       0.49494    0.43258    0.47681   1.00
H2       0.41735    0.43030    0.41141   1.00
H2       0.34471    0.35686    0.42035   1.00
H2       0.34495    0.43498    0.41890   1.00
H2       0.47507    0.52627    0.46036   1.00
H2       0.49128    0.52759    0.43428   1.00
H2       0.42050    0.53378    0.44255   1.00
H2       0.21091    0.34976    0.48608   1.00
H2       0.18294    0.39235    0.46956   1.00
H2       0.19460    0.32636    0.46039   1.00
H2       0.27798    0.50755    0.47431   1.00
H2       0.30829    0.47659    0.49391   1.00
H2       0.36331    0.52722    0.47419   1.00
C4       0.82818    0.13559    0.49885   1.00
C4       0.80103    0.15879    0.48317   1.00
C3       0.87601    0.17939    0.51350   1.00
C3       0.82358    0.22867    0.47945   1.00
C3       0.80749    0.06488    0.49989   1.00
C3       0.74824    0.10989    0.47043   1.00
C2       0.88324    0.08524    0.52945   1.00
C2       0.74463    0.20167    0.45087   1.00
C3       0.90311    0.15503    0.52831   1.00
C3       0.79574    0.24954    0.46387   1.00
C3       0.83445    0.04111    0.51518   1.00
C3       0.72293    0.13211    0.45427   1.00
H1       0.89240    0.23025    0.51388   1.00
H1       0.86119    0.26649    0.48787   1.00
C5       0.75979    0.01834    0.48570   1.00
C5       0.72136    0.03916    0.47373   1.00
H1       0.93791    0.18918    0.53842   1.00
H1       0.81363    0.30074    0.46200   1.00
H1       0.81771    -0.01002   0.51609   1.00
H1       0.68828    0.09670    0.44448   1.00
O3       0.74864    -0.04723   0.48460   1.00
O3       0.66186    -0.00871   0.46437   1.00
Si1      0.79174    -0.06555   0.46843   1.00
Si1      0.58893    -0.02851   0.47481   1.00
C6       0.76397    -0.14917   0.47709   1.00
C6       0.75949    -0.06614   0.44405   1.00
C6       0.88092    -0.01324   0.47099   1.00
C6       0.58956    0.01463    0.49724   1.00
C6       0.54641    -0.01089   0.45556   1.00
C6       0.54493    -0.11726   0.47893   1.00
C6       0.76651    -0.15768   0.50062   1.00
H2       0.70983    -0.17551   0.47321   1.00
C6       0.79267    -0.19335   0.46759   1.00
H2       0.70774    -0.07733   0.44746   1.00
C6       0.79289    0.00180    0.43161   1.00
C6       0.75132    -0.12228   0.42862   1.00
H2       0.88798    -0.01442   0.48736   1.00
C6       0.92675    -0.03885   0.46093   1.00
C6       0.91594    0.06408    0.46483   1.00
C6       0.63044    0.01116    0.51587   1.00
C6       0.60527    0.09022    0.49595   1.00
H2       0.53615    -0.01351   0.50188   1.00
H2       0.57430    0.04463    0.45454   1.00
C6       0.55006    -0.03669   0.43381   1.00
C6       0.47005    -0.03250   0.45933   1.00
H2       0.52277    -0.13874   0.46417   1.00
C6       0.58948    -0.14972   0.48441   1.00
C6       0.48413    -0.14751   0.49434   1.00
H2       0.73799    -0.13784   0.50870   1.00
H2       0.81897    -0.13092   0.50622   1.00
H2       0.74369    -0.21140   0.50483   1.00
H2       0.75318    -0.24719   0.46759   1.00
H2       0.80979    -0.17926   0.45203   1.00
H2       0.83547    -0.18977   0.47624   1.00
H2       0.75991    -0.00139   0.41903   1.00
H2       0.80086    0.04513    0.44079   1.00
H2       0.84169    0.01262    0.42516   1.00
H2       0.71962    -0.17337   0.43483   1.00
H2       0.72606    -0.12029   0.41470   1.00
H2       0.80086    -0.11574   0.42436   1.00
H2       0.91441    -0.05037   0.44488   1.00
H2       0.98108    -0.00112   0.46207   1.00
H2       0.92104    -0.08400   0.46852   1.00
H2       0.92936    0.07192    0.44877   1.00
H2       0.88468    0.08694    0.46778   1.00
H2       0.96322    0.09365    0.47339   1.00
H2       0.68442    0.04907    0.51484   1.00
H2       0.61143    0.02134    0.52992   1.00
H2       0.62580    -0.03882   0.51750   1.00
H2       0.59432    0.10633    0.51044   1.00
H2       0.65853    0.12565    0.49248   1.00
H2       0.57384    0.09672    0.48464   1.00
H2       0.53261    -0.01358   0.42245   1.00
H2       0.60233    -0.02248   0.42976   1.00
H2       0.51840    -0.09195   0.43247   1.00
H2       0.46289    -0.01476   0.47402   1.00
H2       0.45232    -0.01021   0.44779   1.00
H2       0.43715    -0.08781   0.45860   1.00
H2       0.61675    -0.13019   0.49868   1.00
H2       0.55884    -0.20520   0.48553   1.00
H2       0.62703    -0.13845   0.47259   1.00
H2       0.45480    -0.20313   0.49323   1.00
H2       0.50213    -0.13453   0.50996   1.00
H2       0.44869    -0.12917   0.49137   1.00
C4       0.69974    0.87121    0.00320   1.00
C4       0.64779    0.84817    0.01838   1.00
C3       0.75779    0.93770    0.00290   1.00
C3       0.64550    0.89109    0.03370   1.00
C3       0.69328    0.82602    -0.01285   1.00
C3       0.59499    0.77838    0.01847   1.00
C2       0.80079    0.91504    -0.02861   1.00
C2       0.54017    0.79805    0.04829   1.00
C3       0.80674    0.95918    -0.01262   1.00
C3       0.59354    0.86661    0.04836   1.00
C3       0.74389    0.84825    -0.02815   1.00
C3       0.54152    0.75544    0.03284   1.00
H1       0.76633    0.97240    0.01399   1.00
H1       0.68125    0.94149    0.03457   1.00
C5       0.63648    0.75883    -0.01345   1.00
C5       0.59540    0.73197    0.00413   1.00
H1       0.84740    1.00803    -0.01211   1.00
H1       0.59481    0.89985    0.05917   1.00
H1       0.73955    0.81466    -0.03925   1.00
H1       0.50181    0.70646    0.03190   1.00
O3       0.62448    0.71948    -0.03056   1.00
O3       0.55322    0.66240    0.00636   1.00
Si1      0.57327    0.71872    -0.04814   1.00
Si1      0.57830    0.62038    0.02071   1.00
C6       0.58986    0.67162    -0.06632   1.00
C6       0.48940    0.67140    -0.03869   1.00
C6       0.59642    0.80079    -0.05728   1.00
C6       0.65727    0.66661    0.03344   1.00
C6       0.51236    0.58130    0.03860   1.00
C6       0.57770    0.55586    0.00563   1.00
C6       0.66696    0.69558    -0.07014   1.00
H2       0.56875    0.62178    -0.05905   1.00
C6       0.55642    0.65725    -0.08794   1.00
H2       0.49429    0.63845    -0.02755   1.00
C6       0.45915    0.71017    -0.02688   1.00
C6       0.43137    0.62225    -0.05345   1.00
H2       0.65109    0.82293    -0.05997   1.00
C6       0.56488    0.80506    -0.07800   1.00
C6       0.58810    0.85208    -0.04315   1.00
C6       0.72254    0.71076    0.02040   1.00
C6       0.66296    0.71084    0.05241   1.00
H2       0.66416    0.62593    0.03978   1.00
H2       0.51793    0.62364    0.04790   1.00
C6       0.43797    0.54671    0.03001   1.00
C6       0.51484    0.52882    0.05348   1.00
H2       0.52431    0.51552    0.00555   1.00
C6       0.59665    0.57358    -0.01716   1.00
C6       0.61921    0.52180    0.01320   1.00
H2       0.69304    0.69682    -0.05607   1.00
H2       0.69366    0.74654    -0.07684   1.00
H2       0.67264    0.66077    -0.08038   1.00
H2       0.54652    0.60752    -0.09341   1.00
H2       0.50824    0.65687    -0.08813   1.00
H2       0.58968    0.69470    -0.09914   1.00
H2       0.41394    0.67446    -0.01827   1.00
H2       0.49507    0.74605    -0.01591   1.00
H2       0.44389    0.73774    -0.03724   1.00
H2       0.44307    0.58555    -0.06040   1.00
H2       0.38307    0.59218    -0.04540   1.00
H2       0.42294    0.65068    -0.06539   1.00
H2       0.50932    0.77400    -0.07775   1.00
H2       0.57822    0.85738    -0.08175   1.00
H2       0.58439    0.78856    -0.09051   1.00
H2       0.53721    0.84590    -0.04421   1.00
H2       0.59727    0.84733    -0.02727   1.00
H2       0.62440    0.90458    -0.04757   1.00
H2       0.72870    0.76051    0.01686   1.00
H2       0.76822    0.71988    0.02867   1.00
H2       0.72194    0.68589    0.00622   1.00
H2       0.71154    0.72819    0.06021   1.00
H2       0.66070    0.75622    0.04835   1.00
H2       0.62317    0.68213    0.06356   1.00
H2       0.40127    0.53438    0.04233   1.00
H2       0.43137    0.58071    0.01967   1.00
H2       0.42427    0.49956    0.02190   1.00
H2       0.56465    0.54947    0.06071   1.00
H2       0.47740    0.51572    0.06564   1.00
H2       0.50304    0.48158    0.04571   1.00
H2       0.64869    0.61554    -0.01913   1.00
H2       0.59116    0.52971    -0.02567   1.00
H2       0.56256    0.58848    -0.02408   1.00
H2       0.60647    0.47615    0.00432   1.00
H2       0.67410    0.55652    0.01180   1.00
H2       0.60792    0.50570    0.02898   1.00
C4       0.17290    0.30766    0.00106   1.00
C4       0.19988    0.35811    0.01671   1.00
C3       0.13573    0.31085    -0.01584   1.00
C3       0.18712    0.41335    0.01800   1.00
C3       0.18241    0.25004    0.00239   1.00
C3       0.24220    0.35376    0.03199   1.00
C2       0.11707    0.20188    -0.02942   1.00
C2       0.25506    0.45716    0.04910   1.00
C3       0.10824    0.25926    -0.03060   1.00
C3       0.21445    0.46189    0.03364   1.00
C3       0.15537    0.19917    -0.01287   1.00
C3       0.26683    0.40152    0.04810   1.00
H1       0.12774    0.35087    -0.01795   1.00
H1       0.15725    0.41971    0.00770   1.00
C5       0.21912    0.24375    0.01889   1.00
C5       0.25926    0.30151    0.03125   1.00
H1       0.08139    0.26408    -0.04241   1.00
H1       0.20399    0.50108    0.03370   1.00
H1       0.16422    0.15909    -0.01201   1.00
H1       0.29341    0.39519    0.05961   1.00
O3       0.21848    0.18323    0.02194   1.00
O3       0.31036    0.30407    0.04335   1.00
Si1      0.16225    0.12585    0.03720   1.00
Si1      0.38916    0.34759    0.03554   1.00
C6       0.18008    0.06018    0.03152   1.00
C6       0.18673    0.15586    0.06219   1.00
C6       0.07738    0.10187    0.03089   1.00
C6       0.40566    0.39195    0.01227   1.00
C6       0.43012    0.40607    0.05529   1.00
C6       0.42158    0.29127    0.03492   1.00
C6       0.18542    0.04714    0.00841   1.00
H2       0.23166    0.08073    0.03750   1.00
C6       0.13724    -0.01254   0.04123   1.00
H2       0.24153    0.19008    0.06053   1.00
C6       0.15841    0.19985    0.07185   1.00
C6       0.17876    0.10378    0.07908   1.00
H2       0.07629    0.09314    0.01456   1.00
C6       0.01938    0.03378    0.04022   1.00
C6       0.05163    0.15408    0.03407   1.00
C6       0.36882    0.35022    -0.00717   1.00
C6       0.40229    0.45932    0.01120   1.00
H2       0.45961    0.40934    0.00987   1.00
H2       0.41008    0.44087    0.05413   1.00
C6       0.41251    0.37648    0.07734   1.00
C6       0.50953    0.45117    0.05421   1.00
H2       0.43532    0.28906    0.05066   1.00
C6       0.37005    0.21590    0.02910   1.00
C6       0.48747    0.31229    0.02214   1.00
H2       0.22299    0.09358    0.00071   1.00
H2       0.13643    0.02843    0.00076   1.00
H2       0.20166    0.00950    0.00624   1.00
H2       0.16960    -0.03504   0.04368   1.00
H2       0.11512    -0.01171   0.05578   1.00
H2       0.09556    -0.04775   0.03141   1.00
H2       0.18802    0.22690    0.08526   1.00
H2       0.16164    0.23873    0.06147   1.00
H2       0.10545    0.16808    0.07660   1.00
H2       0.20583    0.07683    0.07511   1.00
H2       0.20052    0.12957    0.09348   1.00
H2       0.12512    0.06659    0.08176   1.00
H2       0.02390    0.03355    0.05671   1.00
H2       -0.03142   0.02551    0.03665   1.00
H2       0.02025    -0.01021   0.03402   1.00
H2       0.03211    0.15155    0.04937   1.00
H2       0.09058    0.20659    0.03144   1.00
H2       0.00992    0.14285    0.02355   1.00
H2       0.31755    0.34261    -0.00860   1.00
H2       0.39684    0.37731    -0.02079   1.00
H2       0.36521    0.30045    -0.00740   1.00
H2       0.42295    0.48554    -0.00321   1.00
H2       0.35033    0.44986    0.01228   1.00
H2       0.43255    0.49534    0.02308   1.00
H2       0.43085    0.41782    0.08845   1.00
H2       0.35745    0.34509    0.07954   1.00
H2       0.43567    0.34552    0.08092   1.00
H2       0.52651    0.47571    0.03945   1.00
H2       0.52794    0.49190    0.06554   1.00
H2       0.53426    0.42123    0.05723   1.00
H2       0.35027    0.21146    0.01376   1.00
H2       0.39308    0.18361    0.03023   1.00
H2       0.32704    0.19510    0.03946   1.00
H2       0.50816    0.27882    0.02544   1.00
H2       0.47698    0.30903    0.00587   1.00
H2       0.52765    0.36410    0.02558   1.00
C4       0.13559    0.82818    0.00115   1.00
C4       0.15879    0.80103    0.01683   1.00
C3       0.17939    0.87601    -0.01350   1.00
C3       0.22867    0.82358    0.02055   1.00
C3       0.06488    0.80749    0.00011   1.00
C3       0.10989    0.74824    0.02957   1.00
C2       0.08523    0.88324    -0.02945   1.00
C2       0.20168    0.74463    0.04913   1.00
C3       0.15503    0.90310    -0.02831   1.00
C3       0.24954    0.79574    0.03613   1.00
C3       0.04111    0.83445    -0.01518   1.00
C3       0.13211    0.72293    0.04573   1.00
H1       0.23025    0.89239    -0.01388   1.00
H1       0.26649    0.86119    0.01213   1.00
C5       0.01834    0.75979    0.01430   1.00
C5       0.03916    0.72137    0.02627   1.00
H1       0.18918    0.93791    -0.03842   1.00
H1       0.30074    0.81362    0.03799   1.00
H1       -0.01002   0.81771    -0.01609   1.00
H1       0.09670    0.68828    0.05552   1.00
O3       -0.04722   0.74865    0.01540   1.00
O3       -0.00871   0.66187    0.03563   1.00
Si1      -0.06554   0.79175    0.03157   1.00
Si1      -0.02851   0.58893    0.02519   1.00
C6       -0.14916   0.76398    0.02291   1.00
C6       -0.06613   0.75950    0.05596   1.00
C6       -0.01323   0.88093    0.02901   1.00
C6       0.01462    0.58956    0.00276   1.00
C6       -0.01090   0.54642    0.04445   1.00
C6       -0.11727   0.54494    0.02107   1.00
C6       -0.15767   0.76652    -0.00062   1.00
H2       -0.17550   0.70985    0.02679   1.00
C6       -0.19334   0.79268    0.03241   1.00
H2       -0.07732   0.70776    0.05254   1.00
C6       0.00181    0.79290    0.06839   1.00
C6       -0.12227   0.75134    0.07138   1.00
H2       -0.01441   0.88799    0.01264   1.00
C6       -0.03884   0.92676    0.03907   1.00
C6       0.06409    0.91595    0.03517   1.00
C6       0.01115    0.63044    -0.01587   1.00
C6       0.09021    0.60527    0.00405   1.00
H2       -0.01352   0.53615    -0.00187   1.00
H2       0.04463    0.57431    0.04546   1.00
C6       -0.03669   0.55007    0.06620   1.00
C6       -0.03251   0.47005    0.04067   1.00
H2       -0.13874   0.52277    0.03584   1.00
C6       -0.14973   0.58949    0.01559   1.00
C6       -0.14752   0.48414    0.00567   1.00
H2       -0.13784   0.73800    -0.00870   1.00
H2       -0.13091   0.81898    -0.00622   1.00
H2       -0.21140   0.74371    -0.00482   1.00
H2       -0.24718   0.75320    0.03242   1.00
H2       -0.17925   0.80981    0.04798   1.00
H2       -0.18976   0.83549    0.02376   1.00
H2       -0.00138   0.75992    0.08097   1.00
H2       0.04514    0.80087    0.05922   1.00
H2       0.01264    0.84171    0.07484   1.00
H2       -0.17336   0.71964    0.06518   1.00
H2       -0.12028   0.72607    0.08530   1.00
H2       -0.11573   0.80088    0.07564   1.00
H2       -0.05036   0.91443    0.05512   1.00
H2       -0.00111   0.98109    0.03793   1.00
H2       -0.08398   0.92105    0.03148   1.00
H2       0.07193    0.92937    0.05123   1.00
H2       0.08695    0.88469    0.03222   1.00
H2       0.09366    0.96323    0.02660   1.00
H2       0.04907    0.68442    -0.01483   1.00
H2       0.02132    0.61143    -0.02992   1.00
H2       -0.03883   0.62580    -0.01750   1.00
H2       0.10632    0.59432    -0.01044   1.00
H2       0.12565    0.65852    0.00752   1.00
H2       0.09671    0.57384    0.01536   1.00
H2       -0.01358   0.53262    0.07755   1.00
H2       -0.02247   0.60234    0.07024   1.00
H2       -0.09195   0.51841    0.06754   1.00
H2       -0.01478   0.46289    0.02599   1.00
H2       -0.01021   0.45232    0.05221   1.00
H2       -0.08782   0.43715    0.04140   1.00
H2       -0.13019   0.61676    0.00132   1.00
H2       -0.20520   0.55885    0.01447   1.00
H2       -0.13845   0.62704    0.02741   1.00
H2       -0.20314   0.45481    0.00678   1.00
H2       -0.13454   0.50214    -0.00996   1.00
H2       -0.12918   0.44869    0.00863   1.00
C4       0.12852    0.30552    0.50160   1.00
C4       0.15164    0.35585    0.51728   1.00
C3       0.06080    0.27160    0.49398   1.00
C3       0.10798    0.37274    0.52816   1.00
C3       0.17499    0.28690    0.49317   1.00
C3       0.22229    0.39178    0.52248   1.00
C2       0.08483    0.20188    0.47058   1.00
C2       0.20208    0.45716    0.54910   1.00
C3       0.03940    0.22093    0.47898   1.00
C3       0.13257    0.42245    0.54350   1.00
C3       0.15275    0.23658    0.47778   1.00
C3       0.24553    0.43958    0.53858   1.00
H1       0.02509    0.28287    0.49906   1.00
H1       0.05696    0.34915    0.52534   1.00
C5       0.24345    0.31888    0.50010   1.00
C5       0.26931    0.37948    0.51175   1.00
H1       -0.01033   0.19780    0.47417   1.00
H1       0.09873    0.43297    0.55074   1.00
H1       0.18714    0.22511    0.47148   1.00
H1       0.29541    0.46167    0.54298   1.00
O3       0.28473    0.29310    0.49446   1.00
O3       0.33883    0.42257    0.51371   1.00
Si1      0.29091    0.23824    0.50909   1.00
Si1      0.37608    0.49099    0.49967   1.00
C6       0.33822    0.21748    0.49217   1.00
C6       0.34021    0.28327    0.53033   1.00
C6       0.21134    0.16603    0.51484   1.00
C6       0.32494    0.50823    0.48319   1.00
C6       0.41517    0.55688    0.51757   1.00
C6       0.44081    0.48737    0.48587   1.00
C6       0.31114    0.20145    0.46981   1.00
H2       0.38669    0.26533    0.49133   1.00
C6       0.35715    0.16152    0.49769   1.00
H2       0.37027    0.33488    0.52431   1.00
C6       0.30266    0.28955    0.54941   1.00
C6       0.39328    0.26456    0.53887   1.00
H2       0.18715    0.15162    0.49993   1.00
C6       0.21197    0.10162    0.52325   1.00
C6       0.16008    0.17387    0.52912   1.00
C6       0.28029    0.45284    0.46716   1.00
C6       0.27902    0.53555    0.49214   1.00
H2       0.36307    0.55126    0.47437   1.00
H2       0.37248    0.55819    0.52478   1.00
C6       0.45417    0.54480    0.53524   1.00
C6       0.46376    0.63045    0.50937   1.00
H2       0.48298    0.50511    0.49662   1.00
C6       0.42582    0.41503    0.47929   1.00
C6       0.47038    0.53395    0.46669   1.00
H2       0.30643    0.24323    0.46328   1.00
H2       0.26118    0.15519    0.46905   1.00
H2       0.34602    0.19429    0.46002   1.00
H2       0.40670    0.17487    0.49117   1.00
H2       0.36029    0.15555    0.51395   1.00
H2       0.32055    0.11152    0.49158   1.00
H2       0.33863    0.32982    0.55952   1.00
H2       0.26426    0.30300    0.54540   1.00
H2       0.27829    0.24213    0.55808   1.00
H2       0.42918    0.26849    0.52717   1.00
H2       0.42402    0.29953    0.55097   1.00
H2       0.36791    0.21301    0.54514   1.00
H2       0.24521    0.11443    0.53648   1.00
H2       0.16103    0.06125    0.52771   1.00
H2       0.22864    0.07875    0.51176   1.00
H2       0.16912    0.16861    0.54510   1.00
H2       0.16188    0.22234    0.52750   1.00
H2       0.10775    0.13420    0.52572   1.00
H2       0.23221    0.41374    0.47361   1.00
H2       0.26765    0.47592    0.45454   1.00
H2       0.30646    0.42791    0.46072   1.00
H2       0.25832    0.55274    0.47998   1.00
H2       0.23575    0.49663    0.50058   1.00
H2       0.30753    0.57938    0.50206   1.00
H2       0.46645    0.58245    0.54727   1.00
H2       0.42307    0.49460    0.54214   1.00
H2       0.50182    0.54878    0.53009   1.00
H2       0.43986    0.64419    0.49731   1.00
H2       0.47686    0.66801    0.52149   1.00
H2       0.51134    0.63561    0.50361   1.00
H2       0.38246    0.39045    0.46899   1.00
H2       0.46988    0.41688    0.47189   1.00
H2       0.41432    0.38266    0.49255   1.00
H2       0.51663    0.53496    0.46138   1.00
H2       0.43379    0.51564    0.45419   1.00
H2       0.48437    0.58657    0.46993   1.00
C4       0.69554    0.82311    0.50190   1.00
C4       0.64509    0.79614    0.51755   1.00
C3       0.74146    0.79903    0.49787   1.00
C3       0.63962    0.74683    0.53189   1.00
C3       0.70157    0.87794    0.48970   1.00
C3       0.59701    0.81921    0.51909   1.00
C2       0.79836    0.88263    0.47064   1.00
C2       0.54260    0.74524    0.54904   1.00
C3       0.79172    0.82819    0.48276   1.00
C3       0.58940    0.72159    0.54708   1.00
C3       0.75177    0.90581    0.47428   1.00
C3       0.54867    0.79529    0.53504   1.00
H1       0.73958    0.75945    0.50576   1.00
H1       0.67221    0.72811    0.53179   1.00
C5       0.65722    0.90439    0.49294   1.00
C5       0.59772    0.86642    0.50484   1.00
H1       0.82383    0.80898    0.48063   1.00
H1       0.58750    0.68554    0.55692   1.00
H1       0.75426    0.94385    0.46528   1.00
H1       0.51746    0.81553    0.53672   1.00
O3       0.67035    0.96414    0.48356   1.00
O3       0.54408    0.87903    0.50355   1.00
Si1      0.71458    1.03675    0.49537   1.00
Si1      0.47791    0.82848    0.48980   1.00
C6       0.72317    1.09012    0.47473   1.00
C6       0.66196    1.04048    0.51444   1.00
C6       0.79483    1.05145    0.50381   1.00
C6       0.47682    0.75800    0.47788   1.00
C6       0.41007    0.79918    0.50710   1.00
C6       0.46731    0.87951    0.47164   1.00
C6       0.74572    1.07293    0.45411   1.00
H2       0.67067    1.07838    0.47234   1.00
C6       0.76634    1.16982    0.47669   1.00
H2       0.61109    1.00644    0.50841   1.00
C6       0.66333    1.01223    0.53598   1.00
C6       0.66471    1.10997    0.51840   1.00
H2       0.81452    1.03888    0.49035   1.00
C6       0.84926    1.12648    0.50956   1.00
C6       0.79858    1.00740    0.52166   1.00
C6       0.53672    0.77219    0.46319   1.00
C6       0.46311    0.69445    0.49087   1.00
H2       0.43176    0.73858    0.46822   1.00
H2       0.41819    0.76569    0.51719   1.00
C6       0.40944    0.85448    0.52122   1.00
C6       0.33619    0.75568    0.49847   1.00
H2       0.44099    0.90136    0.47990   1.00
C6       0.53384    0.94208    0.46350   1.00
C6       0.42230    0.84353    0.45257   1.00
H2       0.71154    1.02006    0.44962   1.00
H2       0.79737    1.08083    0.45509   1.00
H2       0.74474    1.10484    0.44182   1.00
H2       0.74391    1.19349    0.46736   1.00
H2       0.76901    1.18758    0.49216   1.00
H2       0.81864    1.19018    0.47136   1.00
H2       0.61912    1.00402    0.54490   1.00
H2       0.66118    0.96319    0.53523   1.00
H2       0.70896    1.04791    0.54437   1.00
H2       0.65415    1.12967    0.50460   1.00
H2       0.62609    1.10421    0.52943   1.00
H2       0.71439    1.14804    0.52435   1.00
H2       0.82901    1.14751    0.52068   1.00
H2       0.89551    1.12992    0.51594   1.00
H2       0.86627    1.15927    0.49629   1.00
H2       0.79929    1.02921    0.53648   1.00
H2       0.75658    0.95535    0.52178   1.00
H2       0.84539    1.00475    0.52047   1.00
H2       0.58099    0.77774    0.47138   1.00
H2       0.52116    0.72979    0.45259   1.00
H2       0.55274    0.81789    0.45412   1.00
H2       0.45446    0.65189    0.48106   1.00
H2       0.50588    0.70487    0.50068   1.00
H2       0.41761    0.67601    0.50026   1.00
H2       0.37284    0.83024    0.53358   1.00
H2       0.45924    0.88659    0.52824   1.00
H2       0.39538    0.88747    0.51301   1.00
H2       0.33125    0.71424    0.48885   1.00
H2       0.29947    0.73227    0.51085   1.00
H2       0.32119    0.78699    0.48971   1.00
H2       0.56629    0.92691    0.45550   1.00
H2       0.52270    0.97319    0.45325   1.00
H2       0.56300    0.97465    0.47605   1.00
H2       0.41115    0.87849    0.44418   1.00
H2       0.44799    0.82605    0.44218   1.00
H2       0.37336    0.79979    0.45676   1.00
C4       0.17691    0.87239    0.50189   1.00
C4       0.20389    0.84893    0.51754   1.00
C3       0.20162    0.94238    0.49766   1.00
C3       0.25391    0.89288    0.53169   1.00
C3       0.12141    0.82358    0.48989   1.00
C3       0.18009    0.77767    0.51927   1.00
C2       0.11736    0.91571    0.47064   1.00
C2       0.25477    0.79738    0.54904   1.00
C3       0.17245    0.96350    0.48256   1.00
C3       0.27914    0.86792    0.54689   1.00
C3       0.09353    0.84591    0.47446   1.00
C3       0.20403    0.75331    0.53523   1.00
H1       0.24168    0.98008    0.50540   1.00
H1       0.27317    0.94428    0.53145   1.00
C5       0.09431    0.75278    0.49332   1.00
C5       0.13212    0.73101    0.50520   1.00
H1       0.19214    1.01482    0.48029   1.00
H1       0.31571    0.90215    0.55660   1.00
H1       0.05499    0.81032    0.46560   1.00
H1       0.18330    0.70185    0.53705   1.00
O3       0.03404    0.70633    0.48415   1.00
O3       0.11868    0.66445    0.50407   1.00
Si1      -0.03808   0.67913    0.49615   1.00
Si1      0.16824    0.64759    0.49027   1.00
C6       -0.09234   0.63407    0.47569   1.00
C6       -0.04192   0.62310    0.51534   1.00
C6       -0.05154   0.74559    0.50447   1.00
C6       0.23878    0.71610    0.47808   1.00
C6       0.19739    0.60900    0.50760   1.00
C6       0.11616    0.58563    0.47233   1.00
C6       -0.07540   0.67314    0.45496   1.00
H2       -0.08130   0.59281    0.47337   1.00
C6       -0.17193   0.59842    0.47787   1.00
H2       -0.00852   0.60552    0.50929   1.00
C6       -0.01277   0.65328    0.53677   1.00
C6       -0.11169   0.55699    0.51956   1.00
H2       -0.03906   0.77744    0.49092   1.00
C6       -0.12616   0.72604    0.51039   1.00
C6       -0.00659   0.79372    0.52214   1.00
C6       0.22482    0.76179    0.46332   1.00
C6       0.30298    0.76586    0.49085   1.00
H2       0.25742    0.68970    0.46844   1.00
H2       0.23152    0.65077    0.51754   1.00
C6       0.14218    0.55392    0.52194   1.00
C6       0.23992    0.57755    0.49896   1.00
H2       0.09408    0.53771    0.48073   1.00
C6       0.05380    0.59016    0.46429   1.00
C6       0.15116    0.57541    0.45322   1.00
H2       -0.02279   0.69109    0.45034   1.00
H2       -0.08265   0.71731    0.45586   1.00
H2       -0.10792   0.64005    0.44279   1.00
H2       -0.19635   0.55202    0.46868   1.00
H2       -0.18927   0.58399    0.49340   1.00
H2       -0.19190   0.63066    0.47250   1.00
H2       -0.00481   0.61723    0.54575   1.00
H2       0.03653    0.69980    0.53583   1.00
H2       -0.04781   0.66405    0.54520   1.00
H2       -0.13211   0.52633    0.50586   1.00
H2       -0.10606   0.52420    0.53065   1.00
H2       -0.14916   0.56939    0.52555   1.00
H2       -0.14723   0.68516    0.52164   1.00
H2       -0.12881   0.76939    0.51669   1.00
H2       -0.15936   0.71015    0.49721   1.00
H2       -0.02805   0.77327    0.53704   1.00
H2       0.04525    0.80316    0.52215   1.00
H2       -0.00334   0.84343    0.52084   1.00
H2       0.22008    0.80112    0.47143   1.00
H2       0.26695    0.78789    0.45259   1.00
H2       0.17874    0.73222    0.45439   1.00
H2       0.34539    0.79909    0.48089   1.00
H2       0.29338    0.79890    0.50061   1.00
H2       0.32124    0.73870    0.50027   1.00
H2       0.16649    0.54158    0.53428   1.00
H2       0.11074    0.57238    0.52898   1.00
H2       0.10853    0.50673    0.51388   1.00
H2       0.28125    0.61341    0.48919   1.00
H2       0.26340    0.56426    0.51133   1.00
H2       0.20793    0.53105    0.49036   1.00
H2       0.06924    0.63763    0.45617   1.00
H2       0.02202    0.54771    0.45419   1.00
H2       0.02181    0.58759    0.47691   1.00
H2       0.11556    0.52918    0.44499   1.00
H2       0.16876    0.61828    0.44271   1.00
H2       0.19468    0.56974    0.45734   1.00
C4       0.30405    0.13650    0.99781   1.00
C4       0.35587    0.15930    0.98259   1.00
C3       0.30011    0.18028    1.01249   1.00
C3       0.41232    0.22672    0.98168   1.00
C3       0.25367    0.06589    0.99874   1.00
C3       0.35152    0.11263    0.96731   1.00
C2       0.19965    0.08587    1.02873   1.00
C2       0.45939    0.20104    0.95159   1.00
C3       0.24961    0.15565    1.02760   1.00
C3       0.46233    0.24723    0.96650   1.00
C3       0.20238    0.04227    1.01387   1.00
C3       0.40398    0.13351    0.95267   1.00
H1       0.33368    0.23138    1.01260   1.00
H1       0.41900    0.26280    0.99208   1.00
C5       0.25468    0.01939    0.98451   1.00
C5       0.29526    0.04524    0.96680   1.00
H1       0.24960    0.18963    1.03790   1.00
H1       0.50169    0.29680    0.96649   1.00
H1       0.16548    -0.00818   1.01400   1.00
H1       0.40239    0.09833    0.94263   1.00
O3       0.21345    -0.04974   0.98747   1.00
O3       0.28298    0.00383    0.95008   1.00
Si1      0.24320    -0.09268   0.99934   1.00
Si1      0.24026    0.00990    0.93105   1.00
C6       0.16538    -0.17036   1.00124   1.00
C6       0.30021    -0.10010   0.98275   1.00
C6       0.27669    -0.05935   1.02354   1.00
C6       0.21423    0.07154    0.93239   1.00
C6       0.29621    0.02865    0.91050   1.00
C6       0.16914    -0.07173   0.92706   1.00
C6       0.10270    -0.16493   1.00889   1.00
H2       0.15426    -0.18619   0.98539   1.00
C6       0.16101    -0.23303   1.01281   1.00
H2       0.28151    -0.09530   0.96794   1.00
C6       0.37721    -0.04362   0.98337   1.00
C6       0.30021    -0.16920   0.98208   1.00
H2       0.23653    -0.05192   1.03009   1.00
C6       0.28694    -0.10702   1.03860   1.00
C6       0.34472    0.01102    1.02529   1.00
C6       0.16903    0.06830    0.95076   1.00
C6       0.26812    0.14874    0.92927   1.00
H2       0.18127    0.05912    0.91912   1.00
H2       0.33694    0.08064    0.91351   1.00
C6       0.33229    -0.01484   0.90891   1.00
C6       0.26832    0.02934    0.88886   1.00
H2       0.18957    -0.09854   0.91837   1.00
C6       0.13701    -0.11631   0.94634   1.00
C6       0.10818    -0.07728   0.91432   1.00
H2       0.09446    -0.12983   0.99957   1.00
H2       0.10980    -0.14703   1.02458   1.00
H2       0.05570    -0.21432   1.00815   1.00
H2       0.12320    -0.28054   1.00559   1.00
H2       0.20914    -0.23276   1.01298   1.00
H2       0.14484    -0.23568   1.02855   1.00
H2       0.40375    -0.04594   0.96980   1.00
H2       0.38395    0.00743    0.98374   1.00
H2       0.40287    -0.04998   0.99650   1.00
H2       0.24957    -0.21185   0.97867   1.00
H2       0.33389    -0.16894   0.97013   1.00
H2       0.31778    -0.17901   0.99645   1.00
H2       0.31764    -0.12660   1.03174   1.00
H2       0.31223    -0.08060   1.05262   1.00
H2       0.23838    -0.14970   1.04338   1.00
H2       0.38972    0.00520    1.02478   1.00
H2       0.35080    0.04685    1.01346   1.00
H2       0.34616    0.03542    1.03974   1.00
H2       0.19970    0.09360    0.96410   1.00
H2       0.14047    0.09406    0.94705   1.00
H2       0.13182    0.01612    0.95490   1.00
H2       0.24290    0.17897    0.92767   1.00
H2       0.30306    0.16994    0.94202   1.00
H2       0.29808    0.15740    0.91550   1.00
H2       0.37412    0.00793    0.89794   1.00
H2       0.35456    -0.01691   0.92341   1.00
H2       0.29725    -0.06701   0.90405   1.00
H2       0.24389    0.06039    0.88838   1.00
H2       0.31005    0.05118    0.87784   1.00
H2       0.23168    -0.02212   0.88376   1.00
H2       0.11680    -0.09341   0.95677   1.00
H2       0.09590    -0.16740   0.94246   1.00
H2       0.17538    -0.12248   0.95440   1.00
H2       0.07247    -0.13037   0.91031   1.00
H2       0.07980    -0.05800   0.92276   1.00
H2       0.12541    -0.04907   0.90011   1.00
C4       0.82342    0.69629    0.99788   1.00
C4       0.79655    0.64572    0.98226   1.00
C3       0.80788    0.74954    0.99967   1.00
C3       0.75657    0.64696    0.96585   1.00
C3       0.86926    0.69463    1.01243   1.00
C3       0.80989    0.59045    0.98294   1.00
C2       0.88249    0.79859    1.02930   1.00
C2       0.74538    0.54237    0.95102   1.00
C3       0.83687    0.79952    1.01486   1.00
C3       0.73113    0.59638    0.95076   1.00
C3       0.89696    0.74478    1.02787   1.00
C3       0.78625    0.54163    0.96712   1.00
H1       0.77486    0.75344    0.99002   1.00
H1       0.74510    0.68486    0.96430   1.00
C5       0.88689    0.64273    1.01150   1.00
C5       0.84723    0.58445    0.99928   1.00
H1       0.82413    0.83710    1.01532   1.00
H1       0.70202    0.59958    0.93934   1.00
H1       0.92828    0.74185    1.03854   1.00
H1       0.79990    0.50488    0.96714   1.00
O3       0.93938    0.64772    1.02333   1.00
O3       0.84918    0.52508    1.00240   1.00
Si1      1.01650    0.68273    1.01406   1.00
Si1      0.78757    0.46315    1.01514   1.00
C6       1.05831    0.68454    1.03684   1.00
C6       1.01818    0.62471    0.99657   1.00
C6       1.04620    0.76579    1.00455   1.00
C6       0.71952    0.47399    1.02362   1.00
C6       0.75634    0.39426    0.99817   1.00
C6       0.82501    0.44466    1.03579   1.00
C6       1.03892    0.71261    1.05592   1.00
H2       1.03812    0.63036    1.03986   1.00
C6       1.13796    0.71783    1.03769   1.00
H2       0.97683    0.57608    1.00209   1.00
C6       1.00096    0.62947    0.97385   1.00
C6       1.08266    0.61626    0.99589   1.00
H2       1.03316    0.78965    1.01683   1.00
C6       1.12494    0.81167    1.00116   1.00
C6       1.01379    0.77585    0.98469   1.00
C6       0.73680    0.53667    1.03746   1.00
C6       0.66484    0.46878    1.00805   1.00
H2       0.69095    0.42943    1.03330   1.00
H2       0.73128    0.40775    0.98641   1.00
C6       0.81125    0.38389    0.98683   1.00
C6       0.70168    0.32265    1.00635   1.00
H2       0.84337    0.41250    1.02926   1.00
C6       0.88938    0.50629    1.04530   1.00
C6       0.77806    0.40335    1.05401   1.00
H2       0.98399    0.68477    1.05865   1.00
H2       1.05500    0.76658    1.05414   1.00
H2       1.06293    0.70715    1.06964   1.00
H2       1.15208    0.69055    1.04857   1.00
H2       1.16013    0.71695    1.02315   1.00
H2       1.16301    0.77085    1.04274   1.00
H2       0.98953    0.58296    0.96565   1.00
H2       0.95618    0.63509    0.97232   1.00
H2       1.04378    0.67211    0.96619   1.00
H2       1.09352    0.60259    1.01073   1.00
H2       1.07515    0.57521    0.98557   1.00
H2       1.12740    0.66299    0.99065   1.00
H2       1.14462    0.78598    0.99162   1.00
H2       1.13809    0.86026    0.99394   1.00
H2       1.15236    0.82538    1.01548   1.00
H2       1.03904    0.77226    0.97103   1.00
H2       0.95999    0.73925    0.98307   1.00
H2       1.01875    0.82645    0.98467   1.00
H2       0.75219    0.58270    1.02860   1.00
H2       0.69211    0.52744    1.04630   1.00
H2       0.77724    0.54700    1.04825   1.00
H2       0.62145    0.46692    1.01594   1.00
H2       0.68497    0.51233    0.99785   1.00
H2       0.64417    0.42250    0.99892   1.00
H2       0.78793    0.34790    0.97429   1.00
H2       0.85105    0.43163    0.98025   1.00
H2       0.83557    0.36401    0.99686   1.00
H2       0.65999    0.32457    1.01403   1.00
H2       0.67909    0.28639    0.99383   1.00
H2       0.72413    0.30206    1.01687   1.00
H2       0.87815    0.54392    1.05175   1.00
H2       0.91173    0.48996    1.05718   1.00
H2       0.92821    0.53155    1.03374   1.00
H2       0.80457    0.38628    1.06424   1.00
H2       0.76274    0.43425    1.06287   1.00
H2       0.73210    0.35774    1.04891   1.00
C4       0.87237    0.17691    0.99812   1.00
C4       0.84892    0.20390    0.98247   1.00
C3       0.94236    0.20185    1.00241   1.00
C3       0.89291    0.25417    0.96838   1.00
C3       0.82356    0.12117    1.01004   1.00
C3       0.77763    0.17983    0.98067   1.00
C2       0.91570    0.11736    1.02936   1.00
C2       0.79739    0.25477    0.95096   1.00
C3       0.96348    0.17269    1.01752   1.00
C3       0.86796    0.27940    0.95318   1.00
C3       0.84590    0.09329    1.02547   1.00
C3       0.75329    0.20378    0.96470   1.00
H1       0.98005    0.24210    0.99473   1.00
H1       0.94433    0.27364    0.96867   1.00
C5       0.75277    0.09383    1.00654   1.00
C5       0.73091    0.13159    0.99467   1.00
H1       1.01481    0.19255    1.01984   1.00
H1       0.90221    0.31616    0.94352   1.00
H1       0.81030    0.05456    1.03428   1.00
H1       0.70183    0.18287    0.96283   1.00
O3       0.70639    0.03339    1.01564   1.00
O3       0.66424    0.11784    0.99573   1.00
Si1      0.67962    -0.03856   1.00357   1.00
Si1      0.64693    0.16704    1.00956   1.00
C6       0.63446    -0.09314   1.02396   1.00
C6       0.62371    -0.04243   0.98433   1.00
C6       0.74641    -0.05157   0.99529   1.00
C6       0.71511    0.23760    1.02185   1.00
C6       0.60832    0.19613    0.99221   1.00
C6       0.58485    0.11457    1.02741   1.00
C6       0.67329    -0.07629   1.04473   1.00
H2       0.59301    -0.08235   1.02625   1.00
C6       0.59914    -0.17268   1.02170   1.00
H2       0.60585    -0.00926   0.99039   1.00
C6       0.65409    -0.01296   0.96295   1.00
C6       0.55783    -0.11231   0.98002   1.00
H2       0.77810    -0.03912   1.00888   1.00
C6       0.72725    -0.12603   0.98930   1.00
C6       0.79466    -0.00628   0.97769   1.00
C6       0.76080    0.22372    1.03664   1.00
C6       0.76484    0.30204    1.00915   1.00
H2       0.68844    0.25596    1.03148   1.00
H2       0.65015    0.23051    0.98233   1.00
C6       0.55356    0.14096    0.97780   1.00
C6       0.57648    0.23831    1.00085   1.00
H2       0.53702    0.09242    1.01896   1.00
C6       0.58959    0.05230    1.03542   1.00
C6       0.57420    0.14922    1.04654   1.00
H2       0.69097    -0.02378   1.04940   1.00
H2       0.71761    -0.08330   1.04386   1.00
H2       0.64012    -0.10904   1.05685   1.00
H2       0.55263    -0.19737   1.03083   1.00
H2       0.58495    -0.18987   1.00614   1.00
H2       0.63149    -0.19251   1.02708   1.00
H2       0.61803    -0.00508   0.95394   1.00
H2       0.70047    0.03644    0.96395   1.00
H2       0.66516    -0.04776   0.95450   1.00
H2       0.52702    -0.13298   0.99368   1.00
H2       0.52508    -0.10671   0.96890   1.00
H2       0.57052    -0.14955   0.97401   1.00
H2       0.68651    -0.14711   0.97801   1.00
H2       0.77079    -0.12838   0.98304   1.00
H2       0.71132    -0.15938   1.00245   1.00
H2       0.77445    -0.02762   0.96276   1.00
H2       0.80386    0.04548    0.97772   1.00
H2       0.84445    -0.00281   0.97903   1.00
H2       0.80034    0.21928    1.02855   1.00
H2       0.78662    0.26575    1.04741   1.00
H2       0.73126    0.17751    1.04551   1.00
H2       0.79782    0.34438    1.01916   1.00
H2       0.79812    0.29273    0.99942   1.00
H2       0.73764    0.32023    0.99973   1.00
H2       0.54122    0.16529    0.96546   1.00
H2       0.57230    0.10977    0.97075   1.00
H2       0.50631    0.10707    0.98579   1.00
H2       0.61210    0.27960    1.01068   1.00
H2       0.56320    0.26181    0.98849   1.00
H2       0.52992    0.20607    1.00940   1.00
H2       0.63700    0.06784    1.04359   1.00
H2       0.54707    0.02027    1.04546   1.00
H2       0.58733    0.02052    1.02277   1.00
H2       0.52793    0.11338    1.05471   1.00
H2       0.61696    0.16687    1.05709   1.00
H2       0.56835    0.19265    1.04244   1.00
C4       0.53202    1.02565    0.83227   1.00
C4       0.50852    0.97519    0.81663   1.00
C3       0.49228    1.02165    0.84943   1.00
C3       0.44095    0.91903    0.81562   1.00
C3       0.59851    1.08413    0.83068   1.00
C3       0.55471    0.98049    0.80105   1.00
C2       0.58192    1.13147    0.86275   1.00
C2       0.46451    0.87615    0.78423   1.00
C3       0.51635    1.07325    0.86420   1.00
C3       0.41969    0.87050    0.79998   1.00
C3       0.62234    1.13501    0.84593   1.00
C3       0.53146    0.93268    0.78496   1.00
H1       0.44478    0.98101    0.85174   1.00
H1       0.40508    0.91196    0.82615   1.00
C5       0.64086    1.09126    0.81391   1.00
C5       0.62364    1.03371    0.80149   1.00
H1       0.48514    1.06781    0.87620   1.00
H1       0.37038    0.83064    0.80013   1.00
H1       0.67084    1.17574    0.84487   1.00
H1       0.56391    0.93965    0.77324   1.00
O3       0.69985    1.15243    0.81065   1.00
O3       0.67205    1.03224    0.78906   1.00
Si1      0.69880    1.20910    0.79556   1.00
Si1      0.70918    0.99007    0.79650   1.00
C6       0.78208    1.27595    0.80089   1.00
C6       0.69243    1.17921    0.77052   1.00
C6       0.63707    1.23144    0.80235   1.00
C6       0.68339    0.94568    0.81981   1.00
C6       0.69163    0.93178    0.77669   1.00
C6       0.79765    1.04776    0.79670   1.00
C6       0.80172    1.28935    0.82391   1.00
H2       0.81356    1.25631    0.79463   1.00
C6       0.81007    1.34846    0.79120   1.00
H2       0.71411    1.14586    0.77194   1.00
C6       0.61975    1.13404    0.76121   1.00
C6       0.73485    1.23162    0.75350   1.00
H2       0.64556    1.24031    0.81866   1.00
C6       0.64518    1.29893    0.79317   1.00
C6       0.55925    1.17805    0.79954   1.00
C6       0.68853    0.98712    0.83935   1.00
C6       0.61346    0.87748    0.82115   1.00
H2       0.72089    0.92934    0.82191   1.00
H2       0.63705    0.89614    0.77811   1.00
C6       0.70178    0.96121    0.75466   1.00
C6       0.72740    0.88799    0.77740   1.00
H2       0.81280    1.05024    0.78086   1.00
C6       0.82038    1.12282    0.80259   1.00
C6       0.84425    1.02805    0.80911   1.00
H2       0.79426    1.24327    0.83152   1.00
H2       0.77113    1.30718    0.83182   1.00
H2       0.85546    1.32778    0.82584   1.00
H2       0.86487    1.37194    0.78846   1.00
H2       0.78602    1.34706    0.77681   1.00
H2       0.80329    1.38315    0.80117   1.00
H2       0.62217    1.10731    0.74770   1.00
H2       0.58522    1.09485    0.77171   1.00
H2       0.59733    1.16494    0.75670   1.00
H2       0.78909    1.25951    0.75719   1.00
H2       0.73051    1.20598    0.73905   1.00
H2       0.71722    1.26800    0.75104   1.00
H2       0.64900    1.29920    0.77665   1.00
H2       0.60221    1.30616    0.79705   1.00
H2       0.68991    1.34347    0.79921   1.00
H2       0.54112    1.18010    0.78436   1.00
H2       0.54690    1.12585    0.80210   1.00
H2       0.52881    1.18850    0.81029   1.00
H2       0.64430    0.99365    0.84109   1.00
H2       0.69089    0.96042    0.85288   1.00
H2       0.73408    1.03736    0.83942   1.00
H2       0.60928    0.85150    0.83552   1.00
H2       0.57022    0.88586    0.82038   1.00
H2       0.60776    0.84170    0.80920   1.00
H2       0.67881    0.91978    0.74357   1.00
H2       0.67700    0.99169    0.75271   1.00
H2       0.75558    0.99303    0.75080   1.00
H2       0.72119    0.86362    0.79213   1.00
H2       0.70510    0.84718    0.76609   1.00
H2       0.78183    0.91882    0.77411   1.00
H2       0.80568    1.12692    0.81805   1.00
H2       0.87551    1.15599    0.80119   1.00
H2       0.79685    1.14283    0.79245   1.00
H2       0.89805    1.06236    0.80555   1.00
H2       0.83782    1.03118    0.82543   1.00
H2       0.83347    0.97657    0.80559   1.00
C4       -0.02592   0.50515    0.83218   1.00
C4       0.02443    0.53230    0.81650   1.00
C3       -0.02997   0.45729    0.84682   1.00
C3       0.07174    0.50973    0.81278   1.00
C3       -0.07592   0.52586    0.83322   1.00
C3       0.02834    0.58511    0.80376   1.00
C2       -0.13134   0.45009    0.86278   1.00
C2       0.12372    0.58870    0.78420   1.00
C3       -0.08143   0.43020    0.86164   1.00
C3       0.12045    0.53757    0.79720   1.00
C3       -0.12665   0.49890    0.84852   1.00
C3       0.07587    0.61042    0.78760   1.00
H1       0.00449    0.44089    0.84720   1.00
H1       0.07194    0.47211    0.82119   1.00
C5       -0.07474   0.57358    0.81904   1.00
C5       -0.01550   0.61200    0.80707   1.00
H1       -0.08209   0.39538    0.87174   1.00
H1       0.15375    0.51967    0.79533   1.00
H1       -0.16103   0.51565    0.84943   1.00
H1       0.07512    0.64508    0.77782   1.00
O3       -0.12915   0.58475    0.81795   1.00
O3       -0.00385   0.67152    0.79771   1.00
Si1      -0.19058   0.54168    0.80177   1.00
Si1      0.04930    0.74444    0.80816   1.00
C6       -0.24641   0.56947    0.81044   1.00
C6       -0.15891   0.57395    0.77739   1.00
C6       -0.22747   0.45249    0.80433   1.00
C6       0.09180    0.74377    0.83059   1.00
C6       0.10944    0.78696    0.78891   1.00
C6       0.00457    0.78845    0.81229   1.00
C6       -0.25746   0.56691    0.83397   1.00
H2       -0.21859   0.62361    0.80657   1.00
C6       -0.31928   0.54080    0.80094   1.00
H2       -0.11834   0.62568    0.78081   1.00
C6       -0.12439   0.54054    0.76495   1.00
C6       -0.20688   0.58214    0.76197   1.00
H2       -0.23572   0.44542    0.82069   1.00
C6       -0.29892   0.40669    0.79426   1.00
C6       -0.18519   0.41746    0.79816   1.00
C6       0.04745    0.70288    0.84922   1.00
C6       0.15167    0.72804    0.82930   1.00
H2       0.11709    0.79717    0.83523   1.00
H2       0.13706    0.75905    0.78789   1.00
C6       0.07999    0.78333    0.76716   1.00
C6       0.16421    0.86331    0.79269   1.00
H2       0.00527    0.81064    0.79753   1.00
C6       -0.07245   0.74392    0.81777   1.00
C6       0.03514    0.84924    0.82770   1.00
H2       -0.20910   0.59541    0.84205   1.00
H2       -0.28317   0.51444    0.83957   1.00
H2       -0.28835   0.58974    0.83818   1.00
H2       -0.33362   0.58030    0.80094   1.00
H2       -0.32233   0.52369    0.78537   1.00
H2       -0.35852   0.49799    0.80959   1.00
H2       -0.09460   0.57352    0.75237   1.00
H2       -0.08904   0.53255    0.77412   1.00
H2       -0.16238   0.49174    0.75850   1.00
H2       -0.22625   0.61385    0.76818   1.00
H2       -0.17962   0.60742    0.74805   1.00
H2       -0.24989   0.53261    0.75771   1.00
H2       -0.29810   0.41905    0.77822   1.00
H2       -0.31554   0.35236    0.79540   1.00
H2       -0.33834   0.41241    0.80186   1.00
H2       -0.19078   0.40405    0.78209   1.00
H2       -0.13108   0.44870    0.80111   1.00
H2       -0.20292   0.37017    0.80672   1.00
H2       0.03137    0.64890    0.84818   1.00
H2       0.07664    0.72187    0.86327   1.00
H2       0.00212    0.70754    0.85085   1.00
H2       0.17873    0.73896    0.84378   1.00
H2       0.13383    0.67478    0.82581   1.00
H2       0.18960    0.75947    0.81799   1.00
H2       0.12055    0.80078    0.75580   1.00
H2       0.04193    0.73107    0.76311   1.00
H2       0.05641    0.81501    0.76583   1.00
H2       0.18911    0.87045    0.80737   1.00
H2       0.20424    0.88104    0.78115   1.00
H2       0.14182    0.89623    0.79197   1.00
H2       -0.08019   0.71663    0.83203   1.00
H2       -0.09726   0.77457    0.81890   1.00
H2       -0.09872   0.70639    0.80595   1.00
H2       0.00886    0.87859    0.82660   1.00
H2       0.03011    0.83122    0.84332   1.00
H2       0.08893    0.88467    0.82474   1.00
C4       0.49481    0.46890    0.83218   1.00
C4       0.46767    0.49211    0.81651   1.00
C3       0.54234    0.51263    0.84691   1.00
C3       0.48994    0.56197    0.81287   1.00
C3       0.47445    0.39826    0.83314   1.00
C3       0.41518    0.44323    0.80368   1.00
C2       0.54990    0.41855    0.86278   1.00
C2       0.41131    0.53502    0.78420   1.00
C3       0.56944    0.48827    0.86172   1.00
C3       0.46212    0.58284    0.79729   1.00
C3       0.50142    0.37449    0.84843   1.00
C3       0.38989    0.46548    0.78752   1.00
H1       0.55847    0.56343    0.84735   1.00
H1       0.52733    0.59977    0.82135   1.00
C5       0.42708    0.35179    0.81888   1.00
C5       0.38859    0.37250    0.80690   1.00
H1       0.60401    0.52238    0.87188   1.00
H1       0.47979    0.63403    0.79548   1.00
H1       0.48491    0.32339    0.84928   1.00
H1       0.35548    0.43012    0.77768   1.00
O3       0.41628    0.28636    0.81771   1.00
O3       0.32932    0.32457    0.79745   1.00
Si1      0.45983    0.26857    0.80155   1.00
Si1      0.25615    0.30426    0.80782   1.00
C6       0.43234    0.18490    0.81012   1.00
C6       0.42782    0.26815    0.77715   1.00
C6       0.54893    0.32120    0.80423   1.00
C6       0.25623    0.34695    0.83028   1.00
C6       0.21368    0.32187    0.78854   1.00
C6       0.21248    0.21545    0.81182   1.00
C6       0.43461    0.17609    0.83364   1.00
H2       0.37825    0.15839    0.80618   1.00
C6       0.46149    0.14115    0.80060   1.00
H2       0.37595    0.25665    0.78051   1.00
C6       0.46110    0.33627    0.76480   1.00
C6       0.42016    0.21235    0.76166   1.00
H2       0.55580    0.31982    0.82060   1.00
C6       0.59517    0.29606    0.79418   1.00
C6       0.58369    0.39858    0.79816   1.00
C6       0.29699    0.34345    0.84894   1.00
C6       0.27157    0.42243    0.82908   1.00
H2       0.20277    0.31853    0.83485   1.00
H2       0.24134    0.37741    0.78760   1.00
C6       0.21778    0.29648    0.76677   1.00
C6       0.13717    0.29983    0.79224   1.00
H2       0.19057    0.19413    0.79702   1.00
C6       0.25726    0.18326    0.81731   1.00
C6       0.15147    0.18472    0.82715   1.00
H2       0.40579    0.19559    0.84172   1.00
H2       0.48699    0.20299    0.83931   1.00
H2       0.41198    0.12233    0.83778   1.00
H2       0.42220    0.08724    0.80052   1.00
H2       0.47880    0.15552    0.78506   1.00
H2       0.50428    0.14484    0.80928   1.00
H2       0.42822    0.33308    0.75219   1.00
H2       0.46872    0.37939    0.77402   1.00
H2       0.51007    0.34743    0.75840   1.00
H2       0.38858    0.16114    0.76780   1.00
H2       0.39500    0.21439    0.74773   1.00
H2       0.46986    0.21921    0.75745   1.00
H2       0.58308    0.28474    0.77811   1.00
H2       0.64942    0.33397    0.79539   1.00
H2       0.58960    0.25090    0.80172   1.00
H2       0.59733    0.40671    0.78212   1.00
H2       0.55218    0.42116    0.80111   1.00
H2       0.63082    0.42821    0.80679   1.00
H2       0.35092    0.38158    0.84798   1.00
H2       0.27768    0.35329    0.86299   1.00
H2       0.29260    0.29357    0.85053   1.00
H2       0.26031    0.43823    0.84357   1.00
H2       0.32483    0.45812    0.82567   1.00
H2       0.24018    0.42891    0.81775   1.00
H2       0.20031    0.31959    0.75543   1.00
H2       0.27017    0.31101    0.76278   1.00
H2       0.18636    0.24122    0.76536   1.00
H2       0.12969    0.31726    0.80694   1.00
H2       0.11942    0.32213    0.78071   1.00
H2       0.10450    0.24451    0.79144   1.00
H2       0.28430    0.20268    0.83161   1.00
H2       0.22683    0.12775    0.81835   1.00
H2       0.29501    0.19488    0.80552   1.00
H2       0.12238    0.12911    0.82597   1.00
H2       0.16923    0.19754    0.84280   1.00
H2       0.11586    0.20286    0.82418   1.00
C4       0.36458    0.20650    0.33594   1.00
C4       0.31252    0.18252    0.35111   1.00
C3       0.39035    0.27021    0.32592   1.00
C3       0.27674    0.21690    0.35644   1.00
C3       0.39208    0.16439    0.33012   1.00
C3       0.29488    0.12087    0.36169   1.00
C2       0.46750    0.24984    0.30471   1.00
C2       0.20680    0.12991    0.38163   1.00
C3       0.44010    0.29115    0.31066   1.00
C3       0.22578    0.19169    0.37141   1.00
C3       0.44316    0.18701    0.31495   1.00
C3       0.24137    0.09483    0.37611   1.00
H1       0.37388    0.30336    0.32947   1.00
H1       0.28634    0.26104    0.34952   1.00
C5       0.36858    0.10011    0.33954   1.00
C5       0.33021    0.08517    0.35772   1.00
H1       0.45642    0.33754    0.30384   1.00
H1       0.20203    0.21902    0.37476   1.00
H1       0.46376    0.15710    0.31133   1.00
H1       0.22641    0.04845    0.38260   1.00
O3       0.38662    0.05502    0.33163   1.00
O3       0.32362    0.03360    0.37041   1.00
Si1      0.33640    -0.00284   0.31538   1.00
Si1      0.37163    0.05361    0.39057   1.00
C6       0.39237    -0.03283   0.30881   1.00
C6       0.26527    -0.06497   0.32895   1.00
C6       0.31666    0.03151    0.29412   1.00
C6       0.42790    0.14090    0.39569   1.00
C6       0.31219    0.01769    0.41037   1.00
C6       0.41723    0.00952    0.38911   1.00
C6       0.46755    0.02333    0.30383   1.00
H2       0.39552    -0.05623   0.32295   1.00
C6       0.37260    -0.08900   0.29208   1.00
H2       0.28607    -0.05942   0.34421   1.00
C6       0.20164    -0.05563   0.33119   1.00
C6       0.23564    -0.14181   0.32329   1.00
H2       0.36680    0.07327    0.28970   1.00
C6       0.28723    -0.01526   0.27496   1.00
C6       0.26939    0.06339    0.29681   1.00
C6       0.48131    0.18458    0.37907   1.00
C6       0.39882    0.18595    0.40412   1.00
H2       0.45788    0.13868    0.40833   1.00
H2       0.28845    0.04936    0.41099   1.00
C6       0.25217    -0.05677   0.40685   1.00
C6       0.34053    0.01921    0.43211   1.00
H2       0.38094    -0.04177   0.39441   1.00
C6       0.43823    -0.00073   0.36744   1.00
C6       0.48219    0.03481    0.40270   1.00
H2       0.49032    0.05979    0.31626   1.00
H2       0.46983    0.05167    0.29015   1.00
H2       0.49996    0.00087    0.30145   1.00
H2       0.39420    -0.12136   0.29583   1.00
H2       0.31783    -0.12202   0.29048   1.00
H2       0.39268    -0.06712   0.27717   1.00
H2       0.16798    -0.08834   0.34324   1.00
H2       0.21582    -0.00364   0.33528   1.00
H2       0.17193    -0.06918   0.31719   1.00
H2       0.27462    -0.15661   0.32420   1.00
H2       0.19523    -0.17523   0.33379   1.00
H2       0.21392    -0.15247   0.30803   1.00
H2       0.24264    -0.06413   0.27884   1.00
H2       0.27210    0.00839    0.26311   1.00
H2       0.32526    -0.02448   0.26792   1.00
H2       0.21545    0.02523    0.29540   1.00
H2       0.27568    0.08852    0.31128   1.00
H2       0.28069    0.10177    0.28507   1.00
H2       0.45944    0.20267    0.36762   1.00
H2       0.52426    0.22968    0.38586   1.00
H2       0.50221    0.15643    0.37145   1.00
H2       0.44024    0.23548    0.40918   1.00
H2       0.37023    0.19603    0.39273   1.00
H2       0.36593    0.16282    0.41726   1.00
H2       0.21224    -0.07017   0.41822   1.00
H2       0.22841    -0.06204   0.39202   1.00
H2       0.26903    -0.09417   0.40782   1.00
H2       0.38159    0.07006    0.43615   1.00
H2       0.30032    0.00481    0.44345   1.00
H2       0.35947    -0.01651   0.43343   1.00
H2       0.47290    0.04759    0.36010   1.00
H2       0.46264    -0.03188   0.36776   1.00
H2       0.39321    -0.02728   0.35796   1.00
H2       0.49957    -0.00241   0.40279   1.00
H2       0.52429    0.08310    0.39719   1.00
H2       0.47209    0.04172    0.41843   1.00
C4       0.83792    0.63356    0.33654   1.00
C4       0.86685    0.68548    0.35174   1.00
C3       0.84395    0.57409    0.33669   1.00
C3       0.90982    0.68619    0.36754   1.00
C3       0.80170    0.64150    0.32003   1.00
C3       0.85226    0.73992    0.35131   1.00
C2       0.78085    0.53257    0.30471   1.00
C2       0.92462    0.79313    0.38163   1.00
C3       0.81656    0.52516    0.32117   1.00
C3       0.93741    0.73817    0.38219   1.00
C3       0.77335    0.59093    0.30471   1.00
C3       0.88292    0.79333    0.36570   1.00
H1       0.86822    0.56447    0.34813   1.00
H1       0.92269    0.64921    0.36880   1.00
C5       0.79379    0.69976    0.31896   1.00
C5       0.80770    0.74120    0.33644   1.00
H1       0.82295    0.48342    0.32201   1.00
H1       0.96767    0.73573    0.39337   1.00
H1       0.74588    0.59638    0.29326   1.00
H1       0.87547    0.83414    0.36441   1.00
O3       0.76905    0.71292    0.30148   1.00
O3       0.78230    0.78525    0.33812   1.00
Si1      0.82207    0.76300    0.28418   1.00
Si1      0.71427    0.76240    0.35184   1.00
C6       0.76072    0.74841    0.26538   1.00
C6       0.86028    0.84710    0.29353   1.00
C6       0.87974    0.73707    0.27585   1.00
C6       0.67796    0.68332    0.36467   1.00
C6       0.74150    0.82868    0.36963   1.00
C6       0.65308    0.76537    0.33604   1.00
C6       0.70602    0.67189    0.26143   1.00
H2       0.73273    0.77109    0.27220   1.00
C6       0.78270    0.78158    0.24378   1.00
H2       0.82200    0.84367    0.30426   1.00
C6       0.92798    0.87535    0.30593   1.00
C6       0.87260    0.90576    0.27853   1.00
H2       0.84599    0.68261    0.27312   1.00
C6       0.91796    0.76766    0.25535   1.00
C6       0.93715    0.74335    0.29060   1.00
C6       0.65593    0.61754    0.35180   1.00
C6       0.71373    0.67617    0.38410   1.00
H2       0.63050    0.67818    0.37051   1.00
H2       0.77644    0.82166    0.37937   1.00
C6       0.78418    0.90286    0.36104   1.00
C6       0.68619    0.82839    0.38389   1.00
H2       0.66794    0.81925    0.33579   1.00
C6       0.65324    0.74593    0.31336   1.00
C6       0.57673    0.72605    0.34300   1.00
H2       0.67937    0.64639    0.27536   1.00
H2       0.72937    0.64371    0.25516   1.00
H2       0.66708    0.66759    0.25076   1.00
H2       0.74458    0.79316    0.23780   1.00
H2       0.83142    0.82881    0.24385   1.00
H2       0.78655    0.74745    0.23284   1.00
H2       0.93825    0.92111    0.31437   1.00
H2       0.92553    0.83884    0.31711   1.00
H2       0.97148    0.88915    0.29597   1.00
H2       0.82538    0.89566    0.27110   1.00
H2       0.89160    0.95433    0.28649   1.00
H2       0.91013    0.91283    0.26696   1.00
H2       0.94410    0.82331    0.25555   1.00
H2       0.95597    0.75253    0.25213   1.00
H2       0.88307    0.74907    0.24256   1.00
H2       0.98304    0.79347    0.28974   1.00
H2       0.92170    0.73467    0.30636   1.00
H2       0.95202    0.70572    0.28658   1.00
H2       0.69872    0.60955    0.34878   1.00
H2       0.61757    0.57247    0.35991   1.00
H2       0.63348    0.61897    0.33734   1.00
H2       0.68054    0.62796    0.39184   1.00
H2       0.76087    0.67661    0.38057   1.00
H2       0.72511    0.71637    0.39513   1.00
H2       0.80835    0.93941    0.37342   1.00
H2       0.82516    0.90793    0.35113   1.00
H2       0.75269    0.91804    0.35248   1.00
H2       0.65503    0.77883    0.39109   1.00
H2       0.71037    0.86568    0.39610   1.00
H2       0.65265    0.84172    0.37565   1.00
H2       0.64152    0.69329    0.31159   1.00
H2       0.61664    0.75294    0.30439   1.00
H2       0.70319    0.77871    0.30679   1.00
H2       0.54581    0.74024    0.33367   1.00
H2       0.55497    0.67090    0.34170   1.00
H2       0.57100    0.73786    0.35865   1.00
C4       0.79541    0.16180    0.33652   1.00
C4       0.81847    0.13291    0.35171   1.00
C3       0.72871    0.15281    0.33612   1.00
C3       0.77541    0.08717    0.36690   1.00
C3       0.84083    0.20112    0.32059   1.00
C3       0.88841    0.15045    0.35192   1.00
C2       0.75161    0.21907    0.30472   1.00
C2       0.86864    0.07546    0.38162   1.00
C3       0.70724    0.18030    0.32061   1.00
C3       0.79991    0.05972    0.38157   1.00
C3       0.81860    0.22950    0.30529   1.00
C3       0.91140    0.11995    0.36629   1.00
H1       0.69384    0.12621    0.34713   1.00
H1       0.72490    0.07212    0.36769   1.00
C5       0.90824    0.21208    0.32010   1.00
C5       0.93494    0.19779    0.33770   1.00
H1       0.65824    0.17170    0.32103   1.00
H1       0.76656    0.02736    0.39229   1.00
H1       0.85233    0.25917    0.29427   1.00
H1       0.96054    0.12964    0.36542   1.00
O3       0.94791    0.24003    0.30308   1.00
O3       1.00452    0.22564    0.34007   1.00
Si1      0.94955    0.19022    0.28545   1.00
Si1      1.04579    0.29249    0.35456   1.00
C6       0.99670    0.25444    0.26741   1.00
C6       0.99719    0.15406    0.29492   1.00
C6       0.86786    0.13103    0.27611   1.00
C6       0.99876    0.32438    0.36726   1.00
C6       1.08488    0.26572    0.37247   1.00
C6       1.11036    0.35703    0.33965   1.00
C6       0.97224    0.30721    0.26362   1.00
H2       1.04634    0.28333    0.27479   1.00
C6       1.01181    0.23606    0.24579   1.00
H2       1.02968    0.19177    0.30615   1.00
C6       0.95860    0.08474    0.30658   1.00
C6       1.04699    0.14599    0.28022   1.00
H2       0.84539    0.16326    0.27343   1.00
C6       0.86437    0.09579    0.25534   1.00
C6       0.81655    0.07091    0.29009   1.00
C6       0.95452    0.34529    0.35419   1.00
C6       0.95424    0.28521    0.38612   1.00
H2       1.03904    0.37197    0.37371   1.00
H2       1.04246    0.22853    0.38166   1.00
C6       1.12018    0.22660    0.36388   1.00
C6       1.13674    0.32058    0.38750   1.00
H2       1.15101    0.34441    0.33962   1.00
C6       1.09308    0.35859    0.31683   1.00
C6       1.14372    0.43241    0.34736   1.00
H2       0.97044    0.33161    0.27771   1.00
H2       0.92143    0.28274    0.25681   1.00
H2       1.00708    0.34805    0.25347   1.00
H2       1.06153    0.27627    0.24043   1.00
H2       1.01263    0.18849    0.24554   1.00
H2       0.97449    0.23179    0.23453   1.00
H2       0.99436    0.07542    0.31524   1.00
H2       0.92231    0.08422    0.31750   1.00
H2       0.93153    0.04209    0.29613   1.00
H2       1.08357    0.19464    0.27338   1.00
H2       1.07717    0.12793    0.28830   1.00
H2       1.01905    0.10931    0.26820   1.00
H2       0.89579    0.07168    0.25561   1.00
H2       0.81226    0.05660    0.25147   1.00
H2       0.88092    0.13207    0.24290   1.00
H2       0.82319    0.02648    0.28899   1.00
H2       0.82082    0.08446    0.30600   1.00
H2       0.76407    0.05441    0.28557   1.00
H2       0.90502    0.30153    0.35051   1.00
H2       0.94483    0.38142    0.36248   1.00
H2       0.97961    0.36999    0.34006   1.00
H2       0.93635    0.31596    0.39393   1.00
H2       0.90918    0.23746    0.38193   1.00
H2       0.98292    0.27419    0.39729   1.00
H2       1.13250    0.20218    0.37619   1.00
H2       1.08664    0.18611    0.35344   1.00
H2       1.16743    0.26051    0.35589   1.00
H2       1.11557    0.34925    0.39473   1.00
H2       1.14984    0.29620    0.39965   1.00
H2       1.18406    0.35645    0.37983   1.00
H2       1.05089    0.36829    0.31482   1.00
H2       1.13700    0.39738    0.30844   1.00
H2       1.07873    0.30985    0.30983   1.00
H2       1.18948    0.46577    0.33858   1.00
H2       1.10869    0.45219    0.34594   1.00
H2       1.15948    0.43699    0.36317   1.00
C4       0.79725    0.64023    0.83455   1.00
C4       0.81985    0.69052    0.85023   1.00
C3       0.74263    0.62615    0.82116   1.00
C3       0.78623    0.72728    0.85528   1.00
C3       0.83005    0.60078    0.83218   1.00
C3       0.87942    0.70549    0.86158   1.00
C2       0.75240    0.53537    0.80388   1.00
C2       0.86785    0.79033    0.88246   1.00
C3       0.72054    0.57493    0.80632   1.00
C3       0.80991    0.77627    0.87082   1.00
C3       0.80783    0.55020    0.81686   1.00
C3       0.90073    0.75292    0.87775   1.00
H1       0.71746    0.65286    0.82175   1.00
H1       0.74332    0.71926    0.84790   1.00
C5       0.88501    0.61230    0.84506   1.00
C5       0.91709    0.67269    0.85688   1.00
H1       0.68045    0.56670    0.79717   1.00
H1       0.78388    0.80171    0.87368   1.00
H1       0.83306    0.52361    0.81497   1.00
H1       0.94087    0.75987    0.88657   1.00
O3       0.90889    0.56701    0.84501   1.00
O3       0.98150    0.69579    0.86481   1.00
Si1      0.87893    0.50439    0.86133   1.00
Si1      1.04699    0.75762    0.85326   1.00
C6       0.91883    0.46116    0.85109   1.00
C6       0.91311    0.53961    0.88527   1.00
C6       0.78924    0.45303    0.86059   1.00
C6       1.03195    0.79419    0.83159   1.00
C6       1.08507    0.81985    0.87226   1.00
C6       1.10326    0.72767    0.84728   1.00
C6       0.91277    0.45035    0.82752   1.00
H2       0.97268    0.49714    0.85393   1.00
C6       0.90534    0.39141    0.86019   1.00
H2       0.95992    0.58609    0.88111   1.00
C6       0.87250    0.56307    0.89910   1.00
C6       0.93581    0.49968    0.89968   1.00
H2       0.77939    0.44390    0.84434   1.00
C6       0.75697    0.38091    0.87074   1.00
C6       0.74374    0.48280    0.86833   1.00
C6       0.99246    0.74616    0.81342   1.00
C6       1.00254    0.84335    0.83422   1.00
H2       1.08351    0.82760    0.82593   1.00
H2       1.04918    0.83815    0.87445   1.00
C6       1.09254    0.79379    0.89358   1.00
C6       1.15554    0.88400    0.86730   1.00
H2       1.13072    0.73335    0.86142   1.00
C6       1.06983    0.65056    0.84182   1.00
C6       1.15915    0.76702    0.83077   1.00
H2       0.93159    0.49861    0.81945   1.00
H2       0.85988    0.41652    0.82295   1.00
H2       0.94308    0.42803    0.82224   1.00
H2       0.95126    0.38724    0.85891   1.00
H2       0.89111    0.38548    0.87612   1.00
H2       0.86506    0.34771    0.85210   1.00
H2       0.90503    0.59650    0.91122   1.00
H2       0.85417    0.59213    0.89072   1.00
H2       0.82906    0.51955    0.90624   1.00
H2       0.97286    0.48929    0.89234   1.00
H2       0.96082    0.52929    0.91331   1.00
H2       0.89211    0.45155    0.90459   1.00
H2       0.77404    0.38465    0.88642   1.00
H2       0.70120    0.35477    0.87081   1.00
H2       0.76969    0.34739    0.86241   1.00
H2       0.73418    0.47544    0.88462   1.00
H2       0.76554    0.53680    0.86540   1.00
H2       0.69407    0.45699    0.86079   1.00
H2       0.93747    0.72062    0.81565   1.00
H2       1.00358    0.77545    0.79935   1.00
H2       1.00670    0.70738    0.81096   1.00
H2       1.00524    0.86905    0.81991   1.00
H2       0.94929    0.81648    0.83884   1.00
H2       1.03136    0.88356    0.84525   1.00
H2       1.10563    0.83333    0.90507   1.00
H2       1.04478    0.74941    0.89842   1.00
H2       1.13224    0.77989    0.89370   1.00
H2       1.15454    0.90698    0.85286   1.00
H2       1.16910    0.92313    0.87896   1.00
H2       1.19619    0.87139    0.86680   1.00
H2       1.03843    0.63762    0.82820   1.00
H2       1.10810    0.63529    0.83949   1.00
H2       1.03744    0.61983    0.85420   1.00
H2       1.19684    0.75025    0.83068   1.00
H2       1.13692    0.75840    0.81560   1.00
H2       1.18699    0.82177    0.83361   1.00
C4       0.36211    0.16549    0.83537   1.00
C4       0.31038    0.13641    0.85061   1.00
C3       0.36142    0.20674    0.81925   1.00
C3       0.24981    0.14048    0.85023   1.00
C3       0.41733    0.15206    0.83594   1.00
C3       0.31916    0.10131    0.86729   1.00
C2       0.46685    0.21960    0.80456   1.00
C2       0.20745    0.07493    0.88178   1.00
C3       0.41211    0.23275    0.80420   1.00
C3       0.20004    0.11115    0.86548   1.00
C3       0.46864    0.17983    0.82082   1.00
C3       0.26706    0.06962    0.88203   1.00
H1       0.32420    0.21929    0.81802   1.00
H1       0.23986    0.16451    0.83880   1.00
C5       0.42108    0.11122    0.85165   1.00
C5       0.37950    0.09743    0.86909   1.00
H1       0.40868    0.26186    0.79283   1.00
H1       0.15754    0.11622    0.86450   1.00
H1       0.50894    0.17133    0.82175   1.00
H1       0.27214    0.04099    0.89315   1.00
O3       0.46761    0.08905    0.85030   1.00
O3       0.39510    0.07594    0.88689   1.00
Si1      0.44480    0.01459    0.84038   1.00
Si1      0.43395    0.13139    0.90494   1.00
C6       0.52664    0.02309    0.83977   1.00
C6       0.39152    -0.04784   0.85806   1.00
C6       0.41042    0.00433    0.81574   1.00
C6       0.45161    0.21599    0.90116   1.00
C6       0.37861    0.09557    0.92569   1.00
C6       0.50973    0.13069    0.91043   1.00
C6       0.58518    0.09192    0.83095   1.00
H2       0.53832    0.02406    0.85588   1.00
C6       0.53808    -0.03396   0.83023   1.00
H2       0.40807    -0.01987   0.87234   1.00
C6       0.31290    -0.07595   0.85684   1.00
C6       0.39917    -0.11228   0.86099   1.00
H2       0.44754    0.05170    0.80832   1.00
C6       0.40658    -0.05492   0.80247   1.00
C6       0.33873    -0.00167   0.81279   1.00
C6       0.49504    0.25559    0.88224   1.00
C6       0.39228    0.23246    0.90261   1.00
H2       0.48353    0.24240    0.91424   1.00
H2       0.33466    0.10069    0.92165   1.00
C6       0.34949    0.01747    0.92929   1.00
C6       0.40404    0.13111    0.94675   1.00
H2       0.49322    0.08645    0.92030   1.00
C6       0.54550    0.11768    0.89218   1.00
C6       0.56721    0.19276    0.92231   1.00
H2       0.58872    0.13582    0.83895   1.00
H2       0.57703    0.09713    0.81486   1.00
H2       0.63481    0.09523    0.83254   1.00
H2       0.57866    -0.03684   0.83836   1.00
H2       0.49283    -0.08423   0.83083   1.00
H2       0.55408    -0.02356   0.81439   1.00
H2       0.28777    -0.10243   0.87086   1.00
H2       0.30091    -0.03537   0.85490   1.00
H2       0.28992    -0.11224   0.84440   1.00
H2       0.45139    -0.09816   0.86496   1.00
H2       0.36710    -0.14426   0.87342   1.00
H2       0.38422    -0.14362   0.84730   1.00
H2       0.37968    -0.10365   0.81044   1.00
H2       0.38032    -0.06039   0.78806   1.00
H2       0.45711    -0.04514   0.79832   1.00
H2       0.29706    -0.05420   0.81422   1.00
H2       0.32865    0.02853    0.82349   1.00
H2       0.33514    0.01587    0.79763   1.00
H2       0.46384    0.24360    0.86863   1.00
H2       0.51890    0.31061    0.88462   1.00
H2       0.53594    0.24475    0.87923   1.00
H2       0.41257    0.28761    0.90280   1.00
H2       0.35750    0.21232    0.88979   1.00
H2       0.36272    0.21272    0.91652   1.00
H2       0.30730    -0.00226   0.94014   1.00
H2       0.32927    -0.01160   0.91528   1.00
H2       0.38806    0.00671    0.93527   1.00
H2       0.42353    0.18590    0.94582   1.00
H2       0.36204    0.11063    0.95768   1.00
H2       0.44403    0.12274    0.95293   1.00
H2       0.56229    0.15759    0.88071   1.00
H2       0.58969    0.11405    0.89705   1.00
H2       0.51039    0.06957    0.88498   1.00
H2       0.60654    0.18162    0.92745   1.00
H2       0.59202    0.23837    0.91281   1.00
H2       0.54742    0.20476    0.93580   1.00
C4       0.83420    0.19686    0.83553   1.00
C4       0.86321    0.17404    0.85075   1.00
C3       0.78590    0.15296    0.82099   1.00
C3       0.85161    0.10641    0.85180   1.00
C3       0.85504    0.26760    0.83445   1.00
C3       0.90619    0.22092    0.86589   1.00
C2       0.78046    0.24749    0.80461   1.00
C2       0.92501    0.13226    0.88173   1.00
C3       0.76004    0.17758    0.80588   1.00
C3       0.88112    0.08589    0.86697   1.00
C3       0.82739    0.29123    0.81933   1.00
C3       0.93775    0.19999    0.88053   1.00
H1       0.76791    0.10177    0.82100   1.00
H1       0.82172    0.07017    0.84149   1.00
C5       0.90315    0.31422    0.84854   1.00
C5       0.91798    0.28856    0.86627   1.00
H1       0.72560    0.14350    0.79568   1.00
H1       0.87045    0.03617    0.86708   1.00
H1       0.84139    0.34179    0.81909   1.00
H1       0.97179    0.23527    0.89046   1.00
O3       0.93156    0.38334    0.84542   1.00
O3       0.94782    0.33033    0.88288   1.00
Si1      1.00401    0.42540    0.83338   1.00
Si1      0.89971    0.32526    0.90199   1.00
C6       1.00464    0.50345    0.83135   1.00
C6       1.06860    0.43264    0.84987   1.00
C6       1.00319    0.39124    0.80924   1.00
C6       0.81183    0.26420    0.90087   1.00
C6       0.93706    0.30658    0.92251   1.00
C6       0.91114    0.40732    0.90583   1.00
C6       0.93665    0.49850    0.82380   1.00
H2       1.00991    0.51974    0.84716   1.00
C6       1.06300    0.56551    0.81959   1.00
H2       1.04555    0.42846    0.86472   1.00
C6       1.08839    0.37562    0.84931   1.00
C6       1.13807    0.50137    0.85032   1.00
H2       0.95562    0.38410    0.80277   1.00
C6       1.06092    0.43814    0.79401   1.00
C6       1.00007    0.32048    0.80761   1.00
C6       0.76966    0.26740    0.88256   1.00
C6       0.78792    0.18692    0.90416   1.00
H2       0.79188    0.27726    0.91415   1.00
H2       0.92522    0.25435    0.91961   1.00
C6       1.01669    0.34949    0.92392   1.00
C6       0.90917    0.30677    0.94420   1.00
H2       0.95863    0.43400    0.91441   1.00
C6       0.92350    0.45148    0.88645   1.00
C6       0.85641    0.41383    0.91863   1.00
H2       0.89340    0.46393    0.83324   1.00
H2       0.92531    0.48020    0.80816   1.00
H2       0.93956    0.54814    0.82445   1.00
H2       1.07333    0.61336    0.82671   1.00
H2       1.11059    0.56472    0.81935   1.00
H2       1.04917    0.56788    0.80386   1.00
H2       1.11748    0.37802    0.86284   1.00
H2       1.04377    0.32476    0.84909   1.00
H2       1.11998    0.38132    0.83613   1.00
H2       1.13067    0.54443    0.85366   1.00
H2       1.17162    0.50109    0.86222   1.00
H2       1.16504    0.51056    0.83590   1.00
H2       1.11131    0.45748    0.80077   1.00
H2       1.05916    0.41121    0.78004   1.00
H2       1.05540    0.48097    0.78917   1.00
H2       1.05070    0.32581    0.80803   1.00
H2       0.97041    0.28511    0.81954   1.00
H2       0.97661    0.29581    0.79323   1.00
H2       0.77440    0.24155    0.86925   1.00
H2       0.71545    0.24218    0.88638   1.00
H2       0.78499    0.31958    0.87831   1.00
H2       0.73248    0.15716    0.90589   1.00
H2       0.80103    0.16512    0.89143   1.00
H2       0.80936    0.17836    0.91791   1.00
H2       1.03569    0.32670    0.93490   1.00
H2       1.04055    0.35092    0.90938   1.00
H2       1.03440    0.40188    0.92867   1.00
H2       0.85367    0.27616    0.94481   1.00
H2       0.92900    0.28490    0.95522   1.00
H2       0.92459    0.35849    0.94919   1.00
H2       0.88010    0.42863    0.87612   1.00
H2       0.93406    0.50282    0.89023   1.00
H2       0.96766    0.45699    0.87832   1.00
H2       0.87436    0.46711    0.92252   1.00
H2       0.80858    0.39472    0.91029   1.00
H2       0.84556    0.38597    0.93290   1.00
C4       -0.02867   0.46105    0.33148   1.00
C4       0.02175    0.48446    0.31583   1.00
C3       -0.07250   0.39110    0.33614   1.00
C3       0.02918    0.44030    0.30209   1.00
C3       -0.03689   0.50981    0.34302   1.00
C3       0.06775    0.55590    0.31366   1.00
C2       -0.13164   0.41769    0.36270   1.00
C2       0.12402    0.53588    0.28428   1.00
C3       -0.12283   0.36996    0.35124   1.00
C3       0.07930    0.46522    0.28687   1.00
C3       -0.08712   0.48749    0.35844   1.00
C3       0.11598    0.58012    0.29767   1.00
H1       -0.06899   0.35348    0.32876   1.00
H1       -0.00187   0.38876    0.30266   1.00
C5       0.00530    0.58054    0.33914   1.00
C5       0.06507    0.60287    0.32730   1.00
H1       -0.15338   0.31866    0.35384   1.00
H1       0.08268    0.43085    0.27748   1.00
H1       -0.09115   0.52311    0.36697   1.00
H1       0.14560    0.63155    0.29552   1.00
O3       -0.01008   0.62655    0.34784   1.00
O3       0.11697    0.67007    0.32805   1.00
Si1      -0.05653   0.65104    0.33543   1.00
Si1      0.18391    0.68974    0.34196   1.00
C6       -0.06715   0.69669    0.35544   1.00
C6       -0.00532   0.70630    0.31595   1.00
C6       -0.13565   0.58257    0.32738   1.00
C6       0.18808    0.62331    0.35476   1.00
C6       0.25142    0.72844    0.32455   1.00
C6       0.19213    0.75240    0.35938   1.00
C6       -0.08836   0.65915    0.37643   1.00
H2       -0.01531   0.73906    0.35761   1.00
C6       -0.11281   0.73028    0.35278   1.00
H2       0.04590    0.72561    0.32204   1.00
C6       -0.00553   0.67492    0.29479   1.00
C6       -0.01104   0.77094    0.31114   1.00
H2       -0.15429   0.55168    0.34114   1.00
C6       -0.19214   0.59969    0.32107   1.00
C6       -0.13749   0.53375    0.31014   1.00
C6       0.12897    0.57766    0.36968   1.00
C6       0.20418    0.57378    0.34248   1.00
H2       0.23302    0.65139    0.36433   1.00
H2       0.24489    0.68633    0.31496   1.00
C6       0.24957    0.78155    0.30973   1.00
C6       0.32557    0.76229    0.33320   1.00
H2       0.21688    0.79971    0.35066   1.00
C6       0.12441    0.74653    0.36720   1.00
C6       0.23777    0.76529    0.37857   1.00
H2       -0.05263   0.64289    0.38134   1.00
H2       -0.13920   0.61406    0.37571   1.00
H2       -0.08874   0.69267    0.38830   1.00
H2       -0.09187   0.77732    0.36164   1.00
H2       -0.11626   0.74320    0.33711   1.00
H2       -0.16480   0.69738    0.35822   1.00
H2       0.03801    0.71105    0.28567   1.00
H2       -0.00130   0.62929    0.29615   1.00
H2       -0.05172   0.66228    0.28628   1.00
H2       -0.00152   0.80248    0.32460   1.00
H2       0.02692    0.80352    0.29990   1.00
H2       -0.06129   0.75677    0.30506   1.00
H2       -0.17331   0.63967    0.30955   1.00
H2       -0.23753   0.55515    0.31498   1.00
H2       -0.21014   0.61582    0.33405   1.00
H2       -0.13918   0.55270    0.29505   1.00
H2       -0.09417   0.52574    0.31037   1.00
H2       -0.18312   0.48352    0.31169   1.00
H2       0.08541    0.53699    0.36175   1.00
H2       0.14606    0.55328    0.38070   1.00
H2       0.11137    0.60695    0.37828   1.00
H2       0.21453    0.54211    0.35277   1.00
H2       0.16187    0.53923    0.33286   1.00
H2       0.24942    0.60117    0.33301   1.00
H2       0.28635    0.79386    0.29743   1.00
H2       0.19947    0.76133    0.30266   1.00
H2       0.26192    0.82903    0.31742   1.00
H2       0.33224    0.72792    0.34331   1.00
H2       0.36244    0.77554    0.32086   1.00
H2       0.33892    0.80916    0.34145   1.00
H2       0.09338    0.69947    0.37561   1.00
H2       0.13399    0.78941    0.37696   1.00
H2       0.09444    0.74720    0.35444   1.00
H2       0.24719    0.81175    0.38643   1.00
H2       0.21346    0.72314    0.38936   1.00
H2       0.28750    0.77205    0.37459   1.00
C4       0.48977    1.02882    0.33144   1.00
C4       0.46278    0.97837    0.31579   1.00
C3       0.46514    1.07419    0.33564   1.00
C3       0.41287    0.97240    0.30161   1.00
C3       0.54517    1.03542    0.34347   1.00
C3       0.48648    0.93083    0.31409   1.00
C2       0.54931    1.13168    0.36269   1.00
C2       0.41190    0.87594    0.28429   1.00
C3       0.49431    1.12447    0.35075   1.00
C3       0.38763    0.92220    0.28641   1.00
C3       0.57305    1.08563    0.35889   1.00
C3       0.46255    0.88252    0.29813   1.00
H1       0.42514    1.07189    0.32788   1.00
H1       0.39368    1.00459    0.30183   1.00
C5       0.57218    0.99163    0.34007   1.00
C5       0.53434    0.93205    0.32818   1.00
H1       0.47469    1.15617    0.35300   1.00
H1       0.35113    0.91992    0.27669   1.00
H1       0.61152    1.08851    0.36777   1.00
H1       0.48321    0.85173    0.29633   1.00
O3       0.63237    1.00534    0.34927   1.00
O3       0.54767    0.87886    0.32933   1.00
Si1      0.70457    1.05017    0.33729   1.00
Si1      0.49797    0.81247    0.34313   1.00
C6       0.75870    1.05928    0.35778   1.00
C6       0.70839    0.99792    0.31812   1.00
C6       0.71820    1.13014    0.32895   1.00
C6       0.42743    0.81057    0.35528   1.00
C6       0.46880    0.74472    0.32580   1.00
C6       0.54990    0.80249    0.36110   1.00
C6       0.74172    1.08147    0.37849   1.00
H2       0.74756    1.00695    0.36011   1.00
C6       0.83830    1.10311    0.35562   1.00
H2       0.67489    0.94695    0.32416   1.00
C6       0.67937    0.99899    0.29667   1.00
C6       0.77812    1.00145    0.31394   1.00
H2       0.70571    1.14955    0.34249   1.00
C6       0.79288    1.18512    0.32305   1.00
C6       0.67338    1.13340    0.31126   1.00
C6       0.44143    0.87027    0.37003   1.00
C6       0.36332    0.79624    0.34248   1.00
H2       0.40868    0.76553    0.36492   1.00
H2       0.43475    0.75243    0.31584   1.00
C6       0.52402    0.74475    0.31149   1.00
C6       0.42612    0.67075    0.33444   1.00
H2       0.57195    0.77658    0.35272   1.00
C6       0.61229    0.86933    0.36915   1.00
C6       0.51476    0.75730    0.38021   1.00
H2       0.68908    1.04688    0.38309   1.00
H2       0.74906    1.13292    0.37758   1.00
H2       0.77416    1.08085    0.39067   1.00
H2       0.86262    1.08106    0.36483   1.00
H2       0.85571    1.10599    0.34010   1.00
H2       0.85833    1.15533    0.36099   1.00
H2       0.67137    0.95496    0.28770   1.00
H2       0.63010    0.99630    0.29758   1.00
H2       0.71450    1.04478    0.28825   1.00
H2       0.79844    0.99116    0.32765   1.00
H2       0.77247    0.96300    0.30285   1.00
H2       0.81568    1.05129    0.30795   1.00
H2       0.81394    1.16524    0.31183   1.00
H2       0.79564    1.23115    0.31675   1.00
H2       0.82602    1.20238    0.33625   1.00
H2       0.69489    1.13437    0.29637   1.00
H2       0.62150    1.09105    0.31123   1.00
H2       0.67021    1.17990    0.31254   1.00
H2       0.44628    0.91436    0.36191   1.00
H2       0.39926    0.85430    0.38074   1.00
H2       0.48745    0.88670    0.37898   1.00
H2       0.32089    0.78714    0.35241   1.00
H2       0.37304    0.83890    0.33271   1.00
H2       0.34504    0.75081    0.33306   1.00
H2       0.49972    0.70810    0.29915   1.00
H2       0.55556    0.79463    0.30446   1.00
H2       0.55758    0.73113    0.31957   1.00
H2       0.38478    0.66535    0.34419   1.00
H2       0.40266    0.63399    0.32207   1.00
H2       0.45803    0.65618    0.34307   1.00
H2       0.59688    0.90142    0.37726   1.00
H2       0.64398    0.85860    0.37927   1.00
H2       0.64436    0.89872    0.35654   1.00
H2       0.55027    0.74660    0.38846   1.00
H2       0.49717    0.78263    0.39070   1.00
H2       0.47121    0.70814    0.37607   1.00
C4       0.53906    0.51024    0.33144   1.00
C4       0.51560    0.53722    0.31579   1.00
C3       0.60906    0.53493    0.33566   1.00
C3       0.55955    0.58721    0.30163   1.00
C3       0.49025    0.45476    0.34345   1.00
C3       0.44434    0.51344    0.31407   1.00
C2       0.58238    0.45069    0.36269   1.00
C2       0.46405    0.58810    0.28429   1.00
C3       0.63017    0.50576    0.35077   1.00
C3       0.53459    0.61244    0.28643   1.00
C3       0.51258    0.42688    0.35887   1.00
C3       0.41998    0.53738    0.29811   1.00
H1       0.64675    0.57497    0.32792   1.00
H1       0.61094    0.60646    0.30187   1.00
C5       0.41945    0.42768    0.34003   1.00
C5       0.39769    0.46550    0.32814   1.00
H1       0.68149    0.52543    0.35303   1.00
H1       0.56881    0.64900    0.27672   1.00
H1       0.47700    0.38836    0.36774   1.00
H1       0.36852    0.51667    0.29629   1.00
O3       0.37300    0.36744    0.34920   1.00
O3       0.33114    0.45209    0.32928   1.00
Si1      0.34575    0.29529    0.33721   1.00
Si1      0.31432    0.50169    0.34308   1.00
C6       0.30070    0.24106    0.35767   1.00
C6       0.28971    0.29146    0.31802   1.00
C6       0.41218    0.28179    0.32888   1.00
C6       0.38286    0.57222    0.35526   1.00
C6       0.27574    0.53084    0.32575   1.00
C6       0.25237    0.44964    0.36102   1.00
C6       0.33980    0.25802    0.37840   1.00
H2       0.25946    0.25213    0.36000   1.00
C6       0.26502    0.16148    0.35550   1.00
H2       0.27216    0.32489    0.32407   1.00
C6       0.31987    0.32058    0.29659   1.00
C6       0.22358    0.22170    0.31381   1.00
H2       0.44404    0.29428    0.34243   1.00
C6       0.39260    0.20716    0.32297   1.00
C6       0.46030    0.32671    0.31121   1.00
C6       0.42856    0.55825    0.37002   1.00
C6       0.43263    0.63640    0.34248   1.00
H2       0.35650    0.59090    0.36490   1.00
H2       0.31751    0.56495    0.31580   1.00
C6       0.22063    0.47562    0.31142   1.00
C6       0.24433    0.57341    0.33438   1.00
H2       0.20444    0.42757    0.35263   1.00
C6       0.25689    0.38727    0.36907   1.00
C6       0.24220    0.48468    0.38014   1.00
H2       0.35777    0.31064    0.38302   1.00
H2       0.38395    0.25075    0.37749   1.00
H2       0.30672    0.22551    0.39057   1.00
H2       0.21863    0.13708    0.36469   1.00
H2       0.25057    0.14412    0.33997   1.00
H2       0.29725    0.14149    0.36087   1.00
H2       0.28382    0.32855    0.28761   1.00
H2       0.36640    0.36987    0.29752   1.00
H2       0.33062    0.28551    0.28816   1.00
H2       0.19293    0.20131    0.32752   1.00
H2       0.19079    0.22734    0.30272   1.00
H2       0.23595    0.18421    0.30782   1.00
H2       0.35170    0.18609    0.31173   1.00
H2       0.43592    0.20448    0.31667   1.00
H2       0.37671    0.17397    0.33615   1.00
H2       0.43983    0.30524    0.29631   1.00
H2       0.46976    0.37856    0.31120   1.00
H2       0.51000    0.32994    0.31251   1.00
H2       0.46786    0.55349    0.36190   1.00
H2       0.45468    0.60040    0.38074   1.00
H2       0.39898    0.51219    0.37895   1.00
H2       0.46589    0.67882    0.35243   1.00
H2       0.46564    0.62677    0.33272   1.00
H2       0.40547    0.65467    0.33306   1.00
H2       0.20828    0.49993    0.29908   1.00
H2       0.23906    0.44416    0.30438   1.00
H2       0.17344    0.44200    0.31948   1.00
H2       0.28020    0.61474    0.34415   1.00
H2       0.23104    0.59688    0.32202   1.00
H2       0.19783    0.54144    0.34300   1.00
H2       0.30436    0.40271    0.37719   1.00
H2       0.21445    0.35551    0.37917   1.00
H2       0.25429    0.35526    0.35645   1.00
H2       0.19597    0.44910    0.38837   1.00
H2       0.28508    0.50228    0.39064   1.00
H2       0.23654    0.52820    0.37601   1.00
C4       0.19920    0.35894    0.16564   1.00
C4       0.17556    0.30841    0.15001   1.00
C3       0.16259    0.35173    0.18382   1.00
C3       0.11032    0.24858    0.15016   1.00
C3       0.26243    0.42080    0.16296   1.00
C3       0.21918    0.31752    0.13323   1.00
C2       0.24882    0.46491    0.19606   1.00
C2       0.13093    0.20939    0.11760   1.00
C3       0.18648    0.40338    0.19857   1.00
C3       0.08882    0.20010    0.13450   1.00
C3       0.28627    0.47175    0.17819   1.00
C3       0.19543    0.26952    0.11719   1.00
H1       0.11760    0.30865    0.18692   1.00
H1       0.07632    0.23866    0.16158   1.00
C5       0.30157    0.43123    0.14513   1.00
C5       0.28598    0.37469    0.13244   1.00
H1       0.15756    0.39551    0.21135   1.00
H1       0.04133    0.15751    0.13551   1.00
H1       0.33261    0.51505    0.17632   1.00
H1       0.22556    0.27896    0.10468   1.00
O3       0.35630    0.49487    0.14105   1.00
O3       0.33336    0.37768    0.11864   1.00
Si1      0.34590    0.54806    0.12685   1.00
Si1      0.37800    0.34154    0.12439   1.00
C6       0.42759    0.61967    0.13070   1.00
C6       0.33572    0.51845    0.10165   1.00
C6       0.28119    0.56340    0.13570   1.00
C6       0.36136    0.29758    0.14773   1.00
C6       0.36023    0.28405    0.10433   1.00
C6       0.46466    0.40484    0.12286   1.00
C6       0.45266    0.63491    0.15327   1.00
H2       0.46066    0.60397    0.12329   1.00
C6       0.44729    0.69086    0.12127   1.00
H2       0.36187    0.48900    0.10197   1.00
C6       0.26197    0.46830    0.09383   1.00
C6       0.37051    0.57179    0.08421   1.00
H2       0.29336    0.57307    0.15184   1.00
C6       0.28079    0.62790    0.12727   1.00
C6       0.20454    0.50513    0.13438   1.00
C6       0.36775    0.33788    0.16764   1.00
C6       0.29542    0.22617    0.15011   1.00
H2       0.40253    0.28581    0.14852   1.00
H2       0.30717    0.24499    0.10682   1.00
C6       0.36234    0.31234    0.08250   1.00
C6       0.40189    0.24607    0.10339   1.00
H2       0.47614    0.40824    0.10668   1.00
C6       0.48263    0.47835    0.12914   1.00
C6       0.51827    0.39104    0.13361   1.00
H2       0.45126    0.59072    0.16042   1.00
H2       0.42110    0.64904    0.16228   1.00
H2       0.50543    0.67662    0.15418   1.00
H2       0.50142    0.71838    0.11729   1.00
H2       0.41869    0.68680    0.10760   1.00
H2       0.43945    0.72334    0.13189   1.00
H2       0.26359    0.44284    0.07992   1.00
H2       0.23245    0.42807    0.10473   1.00
H2       0.23448    0.49528    0.09042   1.00
H2       0.42527    0.60360    0.08672   1.00
H2       0.36475    0.54668    0.06958   1.00
H2       0.34802    0.60448    0.08279   1.00
H2       0.28052    0.62808    0.11071   1.00
H2       0.23634    0.63066    0.13248   1.00
H2       0.32465    0.67463    0.13263   1.00
H2       0.18157    0.50491    0.11981   1.00
H2       0.19734    0.45453    0.13655   1.00
H2       0.17457    0.51236    0.14612   1.00
H2       0.32149    0.33980    0.17074   1.00
H2       0.37623    0.31317    0.18068   1.00
H2       0.41038    0.38993    0.16711   1.00
H2       0.29724    0.20153    0.16419   1.00
H2       0.24937    0.22987    0.15072   1.00
H2       0.28986    0.19139    0.13787   1.00
H2       0.33955    0.27054    0.07153   1.00
H2       0.33311    0.33876    0.08171   1.00
H2       0.41434    0.34764    0.07756   1.00
H2       0.40153    0.22276    0.11791   1.00
H2       0.37969    0.20491    0.09219   1.00
H2       0.45478    0.28050    0.09898   1.00
H2       0.47088    0.48121    0.14502   1.00
H2       0.53651    0.51511    0.12662   1.00
H2       0.45360    0.49474    0.11999   1.00
H2       0.57010    0.42870    0.12900   1.00
H2       0.51545    0.39381    0.15010   1.00
H2       0.51108    0.34111    0.12969   1.00
C4       0.63349    0.83716    0.16343   1.00
C4       0.68532    0.86618    0.14821   1.00
C3       0.56974    0.83467    0.16190   1.00
C3       0.68111    0.90107    0.13086   1.00
C3       0.64596    0.80988    0.18139   1.00
C3       0.74486    0.86018    0.15024   1.00
C2       0.53270    0.78067    0.19532   1.00
C2       0.79300    0.92480    0.11834   1.00
C3       0.52086    0.80757    0.17745   1.00
C3       0.73316    0.92903    0.11623   1.00
C3       0.59548    0.78160    0.19673   1.00
C3       0.79800    0.89125    0.13578   1.00
H1       0.55685    0.85226    0.14942   1.00
H1       0.64032    0.90757    0.12840   1.00
C5       0.70864    0.81075    0.18387   1.00
C5       0.75143    0.82381    0.16676   1.00
H1       0.47587    0.80759    0.17556   1.00
H1       0.72707    0.95319    0.10391   1.00
H1       0.60437    0.76051    0.20927   1.00
H1       0.84214    0.89027    0.13814   1.00
O3       0.72508    0.79504    0.20245   1.00
O3       0.80146    0.80582    0.16692   1.00
Si1      0.77045    0.85593    0.21856   1.00
Si1      0.78674    0.73586    0.15548   1.00
C6       0.76225    0.80314    0.23932   1.00
C6       0.85490    0.89961    0.20940   1.00
C6       0.73510    0.90813    0.22410   1.00
C6       0.70828    0.68783    0.14262   1.00
C6       0.85410    0.76445    0.13802   1.00
C6       0.79722    0.68467    0.17360   1.00
C6       0.68822    0.74362    0.24390   1.00
H2       0.79021    0.77832    0.23407   1.00
C6       0.79360    0.83444    0.26057   1.00
H2       0.85672    0.86059    0.20015   1.00
C6       0.87647    0.96204    0.19500   1.00
C6       0.91478    0.92343    0.22496   1.00
H2       0.68174    0.87053    0.22708   1.00
C6       0.76164    0.95373    0.24358   1.00
C6       0.73486    0.95740    0.20735   1.00
C6       0.64097    0.66260    0.15500   1.00
C6       0.69685    0.71393    0.12179   1.00
H2       0.70929    0.64162    0.13855   1.00
H2       0.84249    0.79275    0.12685   1.00
C6       0.92671    0.81639    0.14633   1.00
C6       0.86162    0.70909    0.12598   1.00
H2       0.85233    0.70569    0.17431   1.00
C6       0.77568    0.68911    0.19575   1.00
C6       0.76587    0.60688    0.16888   1.00
H2       0.66528    0.71139    0.23059   1.00
H2       0.65506    0.76326    0.24868   1.00
H2       0.68831    0.71040    0.25592   1.00
H2       0.81060    0.80269    0.26821   1.00
H2       0.83724    0.88568    0.25953   1.00
H2       0.75650    0.83674    0.27064   1.00
H2       0.92393    0.97509    0.18710   1.00
H2       0.83860    0.95146    0.18329   1.00
H2       0.88498    1.00703    0.20349   1.00
H2       0.90995    0.88081    0.23397   1.00
H2       0.96405    0.94506    0.21724   1.00
H2       0.91687    0.96250    0.23513   1.00
H2       0.81716    0.98524    0.24345   1.00
H2       0.74052    0.98770    0.24502   1.00
H2       0.74599    0.92296    0.25728   1.00
H2       0.78189    1.00670    0.20740   1.00
H2       0.72835    0.93719    0.19212   1.00
H2       0.69290    0.96727    0.21005   1.00
H2       0.62679    0.70189    0.15618   1.00
H2       0.59861    0.61871    0.14755   1.00
H2       0.64483    0.64651    0.17026   1.00
H2       0.65045    0.67448    0.11445   1.00
H2       0.69099    0.75851    0.12348   1.00
H2       0.73838    0.72646    0.11116   1.00
H2       0.96276    0.83981    0.13380   1.00
H2       0.92630    0.85786    0.15469   1.00
H2       0.94655    0.79202    0.15634   1.00
H2       0.81352    0.67150    0.11908   1.00
H2       0.89846    0.73267    0.11363   1.00
H2       0.87978    0.68248    0.13572   1.00
H2       0.72140    0.67176    0.19695   1.00
H2       0.78752    0.65905    0.20622   1.00
H2       0.80358    0.74157    0.20098   1.00
H2       0.78455    0.58313    0.17962   1.00
H2       0.71027    0.57980    0.16995   1.00
H2       0.77978    0.59842    0.15378   1.00
C4       0.16179    0.79540    0.16348   1.00
C4       0.13290    0.81846    0.14829   1.00
C3       0.15268    0.72865    0.16390   1.00
C3       0.08705    0.77538    0.13312   1.00
C3       0.20123    0.84087    0.17938   1.00
C3       0.15055    0.88844    0.14806   1.00
C2       0.21907    0.75161    0.19528   1.00
C2       0.07546    0.86864    0.11838   1.00
C3       0.18018    0.70719    0.17942   1.00
C3       0.05960    0.79988    0.11846   1.00
C3       0.22961    0.81863    0.19469   1.00
C3       0.12006    0.91144    0.13369   1.00
H1       0.12599    0.69375    0.15291   1.00
H1       0.07192    0.72484    0.13236   1.00
C5       0.21232    0.90832    0.17985   1.00
C5       0.19801    0.93499    0.16225   1.00
H1       0.17149    0.65816    0.17901   1.00
H1       0.02717    0.76651    0.10775   1.00
H1       0.25937    0.85239    0.20568   1.00
H1       0.12984    0.96061    0.13453   1.00
O3       0.24039    0.94806    0.19686   1.00
O3       0.22595    1.00457    0.15985   1.00
Si1      0.19072    0.94989    0.21450   1.00
Si1      0.29275    1.04568    0.14533   1.00
C6       0.25505    0.99705    0.23251   1.00
C6       0.15463    0.99760    0.20502   1.00
C6       0.13146    0.86828    0.22387   1.00
C6       0.32446    0.99848    0.13264   1.00
C6       0.26600    1.08477    0.12742   1.00
C6       0.35742    1.11027    0.16021   1.00
C6       0.30773    0.97248    0.23629   1.00
H2       0.28396    1.04664    0.22510   1.00
C6       0.23681    1.01231    0.25413   1.00
H2       0.19232    1.02999    0.19377   1.00
C6       0.08525    0.95904    0.19339   1.00
C6       0.14673    1.04753    0.21971   1.00
H2       0.16364    0.84573    0.22656   1.00
C6       0.09635    0.86496    0.24466   1.00
C6       0.07124    0.81696    0.20992   1.00
C6       0.34533    0.95423    0.14572   1.00
C6       0.28515    0.95390    0.11380   1.00
H2       0.37205    1.03868    0.12616   1.00
H2       0.22872    1.04234    0.11824   1.00
C6       0.22702    1.12022    0.13600   1.00
C6       0.32083    1.13651    0.11236   1.00
H2       0.34489    1.15098    0.16023   1.00
C6       0.35905    1.09308    0.18303   1.00
C6       0.43275    1.14347    0.15247   1.00
H2       0.33204    0.97056    0.22219   1.00
H2       0.28322    0.92170    0.24312   1.00
H2       0.34865    1.00732    0.24641   1.00
H2       0.27711    1.06202    0.25946   1.00
H2       0.18929    1.01322    0.25439   1.00
H2       0.23253    0.97502    0.26540   1.00
H2       0.07597    0.99481    0.18473   1.00
H2       0.08461    0.92266    0.18248   1.00
H2       0.04264    0.93208    0.20386   1.00
H2       0.19544    1.08408    0.22652   1.00
H2       0.12871    1.07773    0.21163   1.00
H2       0.11009    1.01969    0.23175   1.00
H2       0.07232    0.89645    0.24439   1.00
H2       0.05712    0.81288    0.24855   1.00
H2       0.13268    0.88150    0.25708   1.00
H2       0.02687    0.82370    0.21104   1.00
H2       0.08471    0.82114    0.19402   1.00
H2       0.05467    0.76448    0.21446   1.00
H2       0.30153    0.90478    0.14942   1.00
H2       0.38137    0.94442    0.13742   1.00
H2       0.37011    0.97936    0.15983   1.00
H2       0.31580    0.93589    0.10598   1.00
H2       0.23738    0.90891    0.11802   1.00
H2       0.27415    0.98258    0.10262   1.00
H2       0.20259    1.13254    0.12369   1.00
H2       0.18656    1.08678    0.14646   1.00
H2       0.26102    1.16749    0.14397   1.00
H2       0.34940    1.11522    0.10512   1.00
H2       0.29645    1.14961    0.10021   1.00
H2       0.35680    1.18383    0.12000   1.00
H2       0.36867    1.05084    0.18505   1.00
H2       0.39793    1.13700    0.19140   1.00
H2       0.31036    1.07884    0.19004   1.00
H2       0.46621    1.18926    0.16122   1.00
H2       0.45246    1.10838    0.15390   1.00
H2       0.43729    1.15916    0.13665   1.00
C4       1.02597    0.53098    0.66784   1.00
C4       0.97563    0.50781    0.68352   1.00
C3       1.03111    0.48691    0.65353   1.00
C3       0.92949    0.43789    0.68760   1.00
C3       1.07481    0.60196    0.66644   1.00
C3       0.97049    0.55679    0.69588   1.00
C2       1.13133    0.58137    0.63722   1.00
C2       0.87629    0.46506    0.71580   1.00
C3       1.08255    0.51131    0.63871   1.00
C3       0.88075    0.41707    0.70317   1.00
C3       1.12553    0.62572    0.65114   1.00
C3       0.92298    0.53470    0.71205   1.00
H1       0.99749    0.43582    0.65341   1.00
H1       0.93020    0.40001    0.67946   1.00
C5       1.07251    0.64877    0.68028   1.00
C5       1.01310    0.62750    0.69220   1.00
H1       1.08403    0.47696    0.62886   1.00
H1       0.84833    0.36581    0.70531   1.00
H1       1.15905    0.67699    0.64997   1.00
H1       0.92289    0.57030    0.72157   1.00
O3       1.12595    0.71493    0.68107   1.00
O3       1.00014    0.67505    0.70117   1.00
Si1      1.18773    0.73562    0.69730   1.00
Si1      0.94582    0.69257    0.69040   1.00
C6       1.24213    0.81900    0.68821   1.00
C6       1.15573    0.73696    0.72157   1.00
C6       1.22636    0.68476    0.69525   1.00
C6       0.90380    0.64748    0.66817   1.00
C6       0.88544    0.67490    0.70959   1.00
C6       0.98887    0.78103    0.68578   1.00
C6       1.25303    0.82616    0.66466   1.00
H2       1.21333    0.84453    0.69180   1.00
C6       1.31482    0.86505    0.69762   1.00
H2       1.11438    0.74676    0.71794   1.00
C6       1.12251    0.66983    0.73439   1.00
C6       1.20293    0.79458    0.73674   1.00
H2       1.23463    0.68508    0.67891   1.00
C6       1.29807    0.71249    0.70536   1.00
C6       1.18551    0.60778    0.70184   1.00
C6       0.94856    0.65083    0.64966   1.00
C6       0.84510    0.57145    0.66981   1.00
H2       0.87750    0.67431    0.66324   1.00
H2       0.85887    0.61947    0.71093   1.00
C6       0.91467    0.70251    0.73124   1.00
C6       0.82946    0.69460    0.70548   1.00
H2       0.98768    0.80316    0.70038   1.00
C6       1.06601    0.81467    0.68031   1.00
C6       0.95713    0.80912    0.67005   1.00
H2       1.20455    0.80484    0.65656   1.00
H2       1.27971    0.80004    0.65934   1.00
H2       1.28295    0.87969    0.66016   1.00
H2       1.32799    0.91855    0.69727   1.00
H2       1.31830    0.85223    0.71329   1.00
H2       1.35459    0.86196    0.68913   1.00
H2       1.09232    0.67304    0.74685   1.00
H2       1.08778    0.62559    0.72543   1.00
H2       1.16126    0.66053    0.74104   1.00
H2       1.22125    0.84509    0.73022   1.00
H2       1.17543    0.79282    0.75058   1.00
H2       1.24664    0.78949    0.74119   1.00
H2       1.29700    0.72487    0.72131   1.00
H2       1.31583    0.67561    0.70455   1.00
H2       1.33683    0.75756    0.69756   1.00
H2       1.19141    0.60122    0.71798   1.00
H2       1.13129    0.58366    0.69889   1.00
H2       1.20416    0.57849    0.69356   1.00
H2       0.96578    0.61388    0.65102   1.00
H2       0.91923    0.63914    0.63559   1.00
H2       0.99319    0.70120    0.64780   1.00
H2       0.81806    0.55392    0.65536   1.00
H2       0.86404    0.53715    0.67361   1.00
H2       0.80689    0.56479    0.68104   1.00
H2       0.87423    0.67940    0.74263   1.00
H2       0.95357    0.68970    0.73552   1.00
H2       0.93717    0.75772    0.73225   1.00
H2       0.80465    0.67552    0.69084   1.00
H2       0.78953    0.67232    0.71705   1.00
H2       0.85074    0.74980    0.70587   1.00
H2       1.07429    0.79466    0.66622   1.00
H2       1.08974    0.86997    0.67886   1.00
H2       1.09292    0.80496    0.69230   1.00
H2       0.98235    0.86475    0.67084   1.00
H2       0.96250    0.79543    0.65454   1.00
H2       0.90316    0.78984    0.67297   1.00
C4       0.50519    -0.02590   0.66782   1.00
C4       0.53233    0.02445    0.68349   1.00
C3       0.45773    -0.02964   0.65308   1.00
C3       0.51012    0.07209    0.68712   1.00
C3       0.52549    -0.07623   0.66687   1.00
C3       0.58477    0.02801    0.69634   1.00
C2       0.45010    -0.13134   0.63722   1.00
C2       0.58869    0.12372    0.71580   1.00
C3       0.43063    -0.08111   0.63827   1.00
C3       0.53794    0.12079    0.70270   1.00
C3       0.49853    -0.12697   0.65158   1.00
C3       0.61005    0.07555    0.71250   1.00
H1       0.44164    0.00506    0.65262   1.00
H1       0.47278    0.07255    0.67862   1.00
C5       0.57280    -0.07538   0.68115   1.00
C5       0.61130    -0.01618   0.69313   1.00
H1       0.39610    -0.08154   0.62809   1.00
H1       0.52031    0.15434    0.70450   1.00
H1       0.51499    -0.16159   0.65074   1.00
H1       0.64441    0.07456    0.72235   1.00
O3       0.58353    -0.13005   0.68233   1.00
O3       0.67053    -0.00490   0.70260   1.00
Si1      0.53989    -0.19138   0.69849   1.00
Si1      0.74374    0.04791    0.69225   1.00
C6       0.56733    -0.24761   0.68994   1.00
C6       0.57185    -0.15980   0.72290   1.00
C6       0.45081    -0.22777   0.69579   1.00
C6       0.74377    0.09053    0.66977   1.00
C6       0.78621    0.10798    0.71152   1.00
C6       0.78735    0.00270    0.68826   1.00
C6       0.56511    -0.25871   0.66642   1.00
H2       0.62141    -0.22008   0.69390   1.00
C6       0.53808    -0.32052   0.69947   1.00
H2       0.62375    -0.11946   0.71955   1.00
C6       0.53860    -0.12490   0.73523   1.00
C6       0.57941    -0.20797   0.73839   1.00
H2       0.44398    -0.23601   0.67942   1.00
C6       0.40449    -0.29913   0.70583   1.00
C6       0.41610    -0.18508   0.70183   1.00
C6       0.70303    0.04629    0.65111   1.00
C6       0.72850    0.15072    0.67096   1.00
H2       0.79724    0.11552    0.66522   1.00
H2       0.75858    0.13589    0.71245   1.00
C6       0.78201    0.07848    0.73330   1.00
C6       0.86274    0.16239    0.70784   1.00
H2       0.80921    0.00325    0.70307   1.00
C6       0.74252    -0.07428   0.68278   1.00
C6       0.84840    0.03293    0.67295   1.00
H2       0.59399    -0.21039   0.65834   1.00
H2       0.51274    -0.28414   0.66074   1.00
H2       0.58771    -0.28987   0.66229   1.00
H2       0.57734    -0.33520   0.69956   1.00
H2       0.52075    -0.32344   0.71500   1.00
H2       0.49530    -0.35960   0.69077   1.00
H2       0.57146    -0.09522   0.74784   1.00
H2       0.53104    -0.08938   0.72600   1.00
H2       0.48960    -0.16267   0.74162   1.00
H2       0.61098    -0.22765   0.73227   1.00
H2       0.60455    -0.18078   0.75233   1.00
H2       0.52968    -0.25078   0.74260   1.00
H2       0.41653    -0.29837   0.72191   1.00
H2       0.35025    -0.31542   0.70461   1.00
H2       0.41004    -0.33874   0.69830   1.00
H2       0.40242    -0.19058   0.71788   1.00
H2       0.44766    -0.13100   0.69889   1.00
H2       0.36899    -0.20255   0.69319   1.00
H2       0.64911    0.03054    0.65205   1.00
H2       0.72240    0.07543    0.63706   1.00
H2       0.70737    0.00077    0.64953   1.00
H2       0.73982    0.17779    0.65647   1.00
H2       0.67524    0.13321    0.67435   1.00
H2       0.75989    0.18858    0.68230   1.00
H2       0.79949    0.11906    0.74464   1.00
H2       0.72960    0.04065    0.73728   1.00
H2       0.81339    0.05459    0.73472   1.00
H2       0.87029    0.18731    0.69314   1.00
H2       0.88050    0.20245    0.71937   1.00
H2       0.89537    0.13969    0.70866   1.00
H2       0.71552    -0.08187   0.66847   1.00
H2       0.77291    -0.09941   0.68174   1.00
H2       0.70473    -0.10037   0.69455   1.00
H2       0.87744    0.00634    0.67414   1.00
H2       0.83068    0.02799    0.65729   1.00
H2       0.88404    0.08665    0.67592   1.00
C4       0.46890    0.49482    0.66782   1.00
C4       0.49211    0.46767    0.68349   1.00
C3       0.51264    0.54236    0.65310   1.00
C3       0.56197    0.48996    0.68714   1.00
C3       0.39826    0.47444    0.66686   1.00
C3       0.44323    0.41517    0.69632   1.00
C2       0.41855    0.54990    0.63722   1.00
C2       0.53502    0.41131    0.71580   1.00
C3       0.48828    0.56946    0.63829   1.00
C3       0.58285    0.46213    0.70272   1.00
C3       0.37448    0.50140    0.65156   1.00
C3       0.46548    0.38988    0.71248   1.00
H1       0.56344    0.55851    0.65266   1.00
H1       0.59978    0.52736    0.67866   1.00
C5       0.35178    0.42704    0.68112   1.00
C5       0.37250    0.38856    0.69309   1.00
H1       0.52239    0.60404    0.62813   1.00
H1       0.63403    0.47982    0.70453   1.00
H1       0.32339    0.48488    0.65071   1.00
H1       0.43011    0.35546    0.72232   1.00
O3       0.28634    0.41623    0.68228   1.00
O3       0.32457    0.32928    0.70254   1.00
Si1      0.26852    0.45976    0.69844   1.00
Si1      0.30429    0.25612    0.69216   1.00
C6       0.18486    0.43225    0.68987   1.00
C6       0.26810    0.42773    0.72284   1.00
C6       0.32114    0.54886    0.69576   1.00
C6       0.34700    0.25623    0.66970   1.00
C6       0.32190    0.21364    0.71144   1.00
C6       0.21549    0.21243    0.68815   1.00
C6       0.17607    0.43454    0.66634   1.00
H2       0.15836    0.37816    0.69381   1.00
C6       0.14109    0.46138    0.69939   1.00
H2       0.25662    0.37587    0.71948   1.00
C6       0.33621    0.46102    0.73519   1.00
C6       0.21228    0.42005    0.73832   1.00
H2       0.31977    0.55574    0.67939   1.00
C6       0.29598    0.59507    0.70582   1.00
C6       0.39852    0.58363    0.70184   1.00
C6       0.34351    0.29700    0.65105   1.00
C6       0.42249    0.27159    0.67091   1.00
H2       0.31859    0.20277    0.66513   1.00
H2       0.37744    0.24132    0.71239   1.00
C6       0.29649    0.21772    0.73321   1.00
C6       0.29989    0.13715    0.70774   1.00
H2       0.19415    0.19051    0.70295   1.00
C6       0.18327    0.25720    0.68267   1.00
C6       0.18478    0.15143    0.67282   1.00
H2       0.19558    0.40573    0.65826   1.00
H2       0.20296    0.48692    0.66068   1.00
H2       0.12231    0.41189    0.66220   1.00
H2       0.08718    0.42208    0.69946   1.00
H2       0.15544    0.47867    0.71492   1.00
H2       0.14477    0.50417    0.69070   1.00
H2       0.33302    0.42813    0.74780   1.00
H2       0.37934    0.46866    0.72598   1.00
H2       0.34735    0.50998    0.74160   1.00
H2       0.16107    0.38846    0.73218   1.00
H2       0.21432    0.39488    0.75226   1.00
H2       0.21912    0.46974    0.74254   1.00
H2       0.28464    0.58297    0.72188   1.00
H2       0.33388    0.64933    0.70461   1.00
H2       0.25082    0.58949    0.69827   1.00
H2       0.40663    0.59726    0.71788   1.00
H2       0.42111    0.55213    0.69889   1.00
H2       0.42814    0.63077    0.69321   1.00
H2       0.38163    0.35093    0.65201   1.00
H2       0.35336    0.27770    0.63700   1.00
H2       0.29362    0.29259    0.64946   1.00
H2       0.43831    0.26034    0.65642   1.00
H2       0.45817    0.32485    0.67432   1.00
H2       0.42897    0.24019    0.68224   1.00
H2       0.31960    0.20025    0.74455   1.00
H2       0.31100    0.27011    0.73720   1.00
H2       0.24123    0.18629    0.73462   1.00
H2       0.31733    0.12968    0.69304   1.00
H2       0.32219    0.11940    0.71927   1.00
H2       0.24456    0.10446    0.70853   1.00
H2       0.20271    0.28426    0.66837   1.00
H2       0.12777    0.22676    0.68162   1.00
H2       0.19488    0.29494    0.69445   1.00
H2       0.12917    0.12233    0.67400   1.00
H2       0.19761    0.16921    0.65717   1.00
H2       0.20293    0.11583    0.67579   1.00
C4       0.46660    -0.03226   0.16970   1.00
C4       0.49044    0.01983    0.18486   1.00
C3       0.49704    -0.07282   0.16586   1.00
C3       0.55066    0.04074    0.19640   1.00
C3       0.40982    -0.04420   0.15739   1.00
C3       0.45230    0.05316    0.18889   1.00
C2       0.41749    -0.13427   0.13809   1.00
C2       0.53608    0.12665    0.21493   1.00
C3       0.47345    -0.12216   0.15042   1.00
C3       0.57254    0.09222    0.21116   1.00
C3       0.38599    -0.09509   0.14214   1.00
C3       0.47680    0.10691    0.20321   1.00
H1       0.53710    -0.06787   0.17422   1.00
H1       0.58062    0.01948    0.19434   1.00
C5       0.37703    -0.00544   0.16044   1.00
C5       0.39031    0.03319    0.17851   1.00
H1       0.49781    -0.14961   0.14825   1.00
H1       0.61616    0.10482    0.21916   1.00
H1       0.34404    -0.10439   0.13380   1.00
H1       0.45128    0.13318    0.20499   1.00
O3       0.33006    -0.00901   0.14648   1.00
O3       0.34611    0.05484    0.18491   1.00
Si1      0.35450    0.04646    0.12804   1.00
Si1      0.29131    0.01229    0.20279   1.00
C6       0.27702    0.00740    0.11442   1.00
C6       0.37097    0.12477    0.13862   1.00
C6       0.42168    0.05025    0.11345   1.00
C6       0.29319    -0.05799   0.21377   1.00
C6       0.30968    0.07449    0.22144   1.00
C6       0.20949    -0.01351   0.19306   1.00
C6       0.24374    -0.07138   0.11094   1.00
H2       0.24268    0.01332    0.12477   1.00
C6       0.27034    0.03704    0.09356   1.00
H2       0.33887    0.10815    0.15214   1.00
C6       0.44477    0.17533    0.14631   1.00
C6       0.34890    0.16995    0.12646   1.00
H2       0.40380    -0.00365   0.11060   1.00
C6       0.43489    0.08494    0.09208   1.00
C6       0.49478    0.08101    0.12303   1.00
C6       0.28440    -0.11689   0.19944   1.00
C6       0.35157    -0.04518   0.22898   1.00
H2       0.24759    -0.08046   0.22326   1.00
H2       0.35912    0.08548    0.22738   1.00
C6       0.32028    0.14456    0.21373   1.00
C6       0.26043    0.05366    0.24005   1.00
H2       0.20428    0.03166    0.19466   1.00
C6       0.19873    -0.03120   0.17002   1.00
C6       0.14648    -0.07254   0.20418   1.00
H2       0.23591    -0.09865   0.12525   1.00
H2       0.27560    -0.08313   0.10121   1.00
H2       0.19363    -0.09238   0.10380   1.00
H2       0.21868    0.02865    0.09180   1.00
H2       0.30544    0.09148    0.09211   1.00
H2       0.27915    0.01213    0.08067   1.00
H2       0.44487    0.21412    0.15622   1.00
H2       0.46578    0.14968    0.15520   1.00
H2       0.47916    0.20177    0.13368   1.00
H2       0.29462    0.14184    0.12284   1.00
H2       0.35715    0.21432    0.13531   1.00
H2       0.37805    0.18877    0.11242   1.00
H2       0.44179    0.13614    0.09322   1.00
H2       0.48025    0.08922    0.08476   1.00
H2       0.39319    0.05493    0.08170   1.00
H2       0.52485    0.13622    0.12109   1.00
H2       0.49413    0.07087    0.13910   1.00
H2       0.52287    0.05925    0.11565   1.00
H2       0.33239    -0.10541   0.19232   1.00
H2       0.26662    -0.16413   0.20802   1.00
H2       0.24712    -0.12750   0.18752   1.00
H2       0.34043    -0.09263   0.23656   1.00
H2       0.40058    -0.02588   0.22147   1.00
H2       0.35723    -0.00954   0.24097   1.00
H2       0.34265    0.18307    0.22568   1.00
H2       0.35539    0.16362    0.20086   1.00
H2       0.27240    0.14111    0.20910   1.00
H2       0.25162    0.00599    0.24684   1.00
H2       0.28236    0.09269    0.25188   1.00
H2       0.21127    0.04807    0.23579   1.00
H2       0.20526    -0.07450   0.16628   1.00
H2       0.14811    -0.04276   0.16497   1.00
H2       0.23549    0.01221    0.16121   1.00
H2       0.09898    -0.07660   0.19871   1.00
H2       0.14330    -0.12173   0.20163   1.00
H2       0.14834    -0.06382   0.22049   1.00
C4       1.02938    0.48997    0.16872   1.00
C4       0.97885    0.46307    0.18435   1.00
C3       1.08038    0.47156    0.16624   1.00
C3       0.97806    0.41999    0.20013   1.00
C3       1.03008    0.53884    0.15490   1.00
C3       0.92576    0.47966    0.18434   1.00
C2       1.13184    0.54920    0.13735   1.00
C2       0.87578    0.41201    0.21567   1.00
C3       1.13045    0.50061    0.15107   1.00
C3       0.92760    0.39462    0.21525   1.00
C3       1.08025    0.56659    0.13946   1.00
C3       0.87711    0.45594    0.20021   1.00
H1       1.08251    0.43632    0.17534   1.00
H1       1.01435    0.40611    0.20117   1.00
C5       0.98049    0.55944    0.15653   1.00
C5       0.92178    0.52026    0.16864   1.00
H1       1.16635    0.48569    0.15010   1.00
H1       0.92925    0.36320    0.22618   1.00
H1       1.07896    0.60017    0.12930   1.00
H1       0.84205    0.47181    0.20071   1.00
O3       0.98802    0.61443    0.14548   1.00
O3       0.86410    0.52571    0.16607   1.00
Si1      1.02613    0.69042    0.15561   1.00
Si1      0.80059    0.46741    0.15293   1.00
C6       1.02995    0.73603    0.13347   1.00
C6       0.96983    0.69290    0.17361   1.00
C6       1.10853    0.71537    0.16485   1.00
C6       0.80757    0.39825    0.14333   1.00
C6       0.73201    0.43681    0.17000   1.00
C6       0.78444    0.50932    0.13303   1.00
C6       1.05618    0.71716    0.11387   1.00
H2       0.97617    0.71852    0.13061   1.00
C6       1.06647    0.81599    0.13354   1.00
H2       0.92034    0.65376    0.16788   1.00
C6       0.97368    0.67215    0.19599   1.00
C6       0.96497    0.75927    0.17534   1.00
H2       1.13102    0.70235    0.15217   1.00
C6       1.15728    0.79321    0.16903   1.00
C6       1.11674    0.67915    0.18410   1.00
C6       0.86939    0.41449    0.12923   1.00
C6       0.79973    0.34056    0.15811   1.00
H2       0.76268    0.37251    0.13361   1.00
H2       0.74389    0.40897    0.18126   1.00
C6       0.72482    0.49214    0.18226   1.00
C6       0.65945    0.38556    0.16162   1.00
H2       0.75413    0.52894    0.14012   1.00
C6       0.84770    0.57327    0.12399   1.00
C6       0.74173    0.46567    0.11447   1.00
H2       1.02622    0.66268    0.11055   1.00
H2       1.10953    0.73062    0.11543   1.00
H2       1.05204    0.74376    0.10058   1.00
H2       1.04061    0.83323    0.12312   1.00
H2       1.06683    0.83689    0.14841   1.00
H2       1.11934    0.83956    0.12843   1.00
H2       0.92787    0.66179    0.20442   1.00
H2       0.97684    0.62581    0.19680   1.00
H2       1.01743    0.71283    0.20393   1.00
H2       0.95216    0.77298    0.16079   1.00
H2       0.92468    0.75238    0.18588   1.00
H2       1.01278    0.80202    0.18085   1.00
H2       1.13335    0.81347    0.17909   1.00
H2       1.20527    0.80327    0.17603   1.00
H2       1.17197    0.82240    0.15503   1.00
H2       1.11461    0.70346    0.19816   1.00
H2       1.07834    0.62573    0.18523   1.00
H2       1.16623    0.68162    0.18377   1.00
H2       0.91502    0.42676    0.13793   1.00
H2       0.85804    0.37032    0.11980   1.00
H2       0.88149    0.45673    0.11898   1.00
H2       0.79563    0.29722    0.14958   1.00
H2       0.84320    0.35764    0.16823   1.00
H2       0.75367    0.32060    0.16731   1.00
H2       0.68864    0.46851    0.19475   1.00
H2       0.77337    0.52960    0.18902   1.00
H2       0.70669    0.51932    0.17278   1.00
H2       0.65912    0.34374    0.15329   1.00
H2       0.62306    0.36270    0.17410   1.00
H2       0.64054    0.41093    0.15163   1.00
H2       0.88371    0.56066    0.11705   1.00
H2       0.83292    0.59850    0.11260   1.00
H2       0.87435    0.61027    0.13591   1.00
H2       0.72644    0.49498    0.10481   1.00
H2       0.77096    0.44952    0.10512   1.00
H2       0.69498    0.42030    0.11926   1.00
C4       0.51024    0.53904    0.16855   1.00
C4       0.53723    0.51559    0.18420   1.00
C3       0.53513    0.60904    0.16428   1.00
C3       0.58744    0.55958    0.19831   1.00
C3       0.45456    0.49024    0.15661   1.00
C3       0.51322    0.44431    0.18599   1.00
C2       0.45069    0.58237    0.13731   1.00
C2       0.58810    0.46406    0.21571   1.00
C3       0.50596    0.63016    0.14917   1.00
C3       0.61267    0.53462    0.21351   1.00
C3       0.42668    0.51257    0.14118   1.00
C3       0.53717    0.41996    0.20195   1.00
H1       0.57533    0.64673    0.17197   1.00
H1       0.60686    0.61099    0.19803   1.00
C5       0.42728    0.41945    0.16009   1.00
C5       0.46505    0.39760    0.17197   1.00
H1       0.52578    0.68148    0.14686   1.00
H1       0.64938    0.56887    0.22317   1.00
H1       0.38800    0.47697    0.13237   1.00
H1       0.51631    0.36850    0.20381   1.00
O3       0.36688    0.37305    0.15098   1.00
O3       0.45137    0.33096    0.17089   1.00
Si1      0.29489    0.34617    0.16303   1.00
Si1      0.50066    0.31376    0.15707   1.00
C6       0.24038    0.30103    0.14263   1.00
C6       0.29102    0.29024    0.18226   1.00
C6       0.28177    0.41288    0.17132   1.00
C6       0.57122    0.38202    0.14480   1.00
C6       0.52977    0.27516    0.17441   1.00
C6       0.44829    0.25171    0.13919   1.00
C6       0.25725    0.33992    0.12187   1.00
H2       0.25123    0.25963    0.14033   1.00
C6       0.16083    0.26563    0.14487   1.00
H2       0.32425    0.27244    0.17620   1.00
C6       0.32042    0.32056    0.20366   1.00
C6       0.22117    0.22430    0.18655   1.00
H2       0.29423    0.44461    0.15774   1.00
C6       0.20727    0.39363    0.17729   1.00
C6       0.32697    0.46110    0.18894   1.00
C6       0.55731    0.42771    0.13002   1.00
C6       0.63560    0.43176    0.15752   1.00
H2       0.58964    0.35542    0.13517   1.00
H2       0.56408    0.31697    0.18431   1.00
C6       0.47458    0.22031    0.18881   1.00
C6       0.57203    0.24341    0.16577   1.00
H2       0.42615    0.20386    0.14764   1.00
C6       0.38599    0.25640    0.13118   1.00
C6       0.48302    0.24117    0.12007   1.00
H2       0.30979    0.35767    0.11721   1.00
H2       0.25019    0.38420    0.12275   1.00
H2       0.22456    0.30678    0.10974   1.00
H2       0.13620    0.21915    0.13572   1.00
H2       0.14361    0.25139    0.16042   1.00
H2       0.14097    0.29795    0.13949   1.00
H2       0.32831    0.28450    0.21265   1.00
H2       0.36979    0.36697    0.20267   1.00
H2       0.28556    0.33156    0.21209   1.00
H2       0.20056    0.19352    0.17288   1.00
H2       0.22678    0.19154    0.19766   1.00
H2       0.18387    0.23691    0.19256   1.00
H2       0.18619    0.35285    0.18857   1.00
H2       0.20484    0.43712    0.18356   1.00
H2       0.17395    0.37770    0.16413   1.00
H2       0.30561    0.44083    0.20387   1.00
H2       0.37876    0.47036    0.18892   1.00
H2       0.33039    0.51087    0.18761   1.00
H2       0.55280    0.46720    0.13812   1.00
H2       0.59937    0.45360    0.11926   1.00
H2       0.51114    0.39817    0.12114   1.00
H2       0.67796    0.46480    0.14752   1.00
H2       0.62621    0.46498    0.16726   1.00
H2       0.65380    0.40456    0.16694   1.00
H2       0.49891    0.20797    0.20114   1.00
H2       0.44333    0.23899    0.19585   1.00
H2       0.44075    0.17308    0.18080   1.00
H2       0.61333    0.27909    0.15596   1.00
H2       0.59553    0.23013    0.17813   1.00
H2       0.53985    0.19686    0.15721   1.00
H2       0.40151    0.30382    0.12302   1.00
H2       0.35402    0.21390    0.12112   1.00
H2       0.35416    0.25406    0.14382   1.00
H2       0.44724    0.19490    0.11189   1.00
H2       0.50065    0.28395    0.10953   1.00
H2       0.52647    0.23536    0.12418   1.00
C4       0.63456    0.80025    0.66368   1.00
C4       0.68666    0.82401    0.64852   1.00
C3       0.59665    0.83300    0.66828   1.00
C3       0.71027    0.88617    0.63777   1.00
C3       0.61984    0.74104    0.67520   1.00
C3       0.71713    0.78378    0.64367   1.00
C2       0.53240    0.75095    0.69525   1.00
C2       0.79330    0.86930    0.61841   1.00
C3       0.54725    0.80931    0.68370   1.00
C3       0.76168    0.90791    0.62299   1.00
C3       0.56891    0.71721    0.69043   1.00
C3       0.77087    0.80802    0.62935   1.00
H1       0.60365    0.87491    0.66051   1.00
H1       0.69114    0.91768    0.64044   1.00
C5       0.65587    0.70587    0.67136   1.00
C5       0.69435    0.71992    0.65323   1.00
H1       0.52179    0.83537    0.68644   1.00
H1       0.77630    0.95302    0.61557   1.00
H1       0.55758    0.67360    0.69818   1.00
H1       0.79511    0.78077    0.62699   1.00
O3       0.64978    0.65606    0.68461   1.00
O3       0.71317    0.67440    0.64600   1.00
Si1      0.70482    0.67570    0.70300   1.00
Si1      0.66912    0.62291    0.62760   1.00
C6       0.66260    0.59653    0.71571   1.00
C6       0.78198    0.68995    0.69212   1.00
C6       0.71184    0.74233    0.71859   1.00
C6       0.60097    0.62997    0.61718   1.00
C6       0.73081    0.64104    0.60880   1.00
C6       0.63964    0.53914    0.63625   1.00
C6       0.58419    0.56606    0.71924   1.00
H2       0.66670    0.56247    0.70479   1.00
C6       0.69086    0.58532    0.73622   1.00
H2       0.76428    0.65977    0.67824   1.00
C6       0.83511    0.76395    0.68520   1.00
C6       0.82464    0.66335    0.70359   1.00
H2       0.65844    0.72642    0.72155   1.00
C6       0.74604    0.75115    0.73988   1.00
C6       0.74570    0.81689    0.70992   1.00
C6       0.54305    0.62208    0.63179   1.00
C6       0.61666    0.69116    0.60278   1.00
H2       0.57684    0.58573    0.60716   1.00
H2       0.74415    0.69190    0.60355   1.00
C6       0.79944    0.64721    0.61616   1.00
C6       0.70818    0.59420    0.58961   1.00
H2       0.68333    0.53168    0.63425   1.00
C6       0.62160    0.52590    0.65924   1.00
C6       0.57904    0.47918    0.62460   1.00
H2       0.55741    0.56140    0.70503   1.00
H2       0.57431    0.59798    0.72954   1.00
H2       0.56106    0.51487    0.72576   1.00
H2       0.67997    0.53261    0.73725   1.00
H2       0.74564    0.61825    0.73782   1.00
H2       0.66694    0.59389    0.74942   1.00
H2       0.87296    0.76339    0.67502   1.00
H2       0.81135    0.78801    0.67683   1.00
H2       0.86248    0.79608    0.69815   1.00
H2       0.79441    0.60873    0.70658   1.00
H2       0.86833    0.67070    0.69455   1.00
H2       0.84431    0.69032    0.71794   1.00
H2       0.79622    0.75573    0.73848   1.00
H2       0.75249    0.79640    0.74786   1.00
H2       0.71454    0.70860    0.74983   1.00
H2       0.80095    0.84456    0.71191   1.00
H2       0.73598    0.81894    0.69392   1.00
H2       0.72591    0.84578    0.71787   1.00
H2       0.55665    0.66967    0.63956   1.00
H2       0.49626    0.60749    0.62329   1.00
H2       0.53064    0.58284    0.64320   1.00
H2       0.57000    0.68324    0.59539   1.00
H2       0.63791    0.73933    0.61090   1.00
H2       0.65176    0.69674    0.59063   1.00
H2       0.83821    0.66974    0.60428   1.00
H2       0.81967    0.68043    0.62942   1.00
H2       0.79352    0.59772    0.62007   1.00
H2       0.66142    0.58857    0.58303   1.00
H2       0.74743    0.61624    0.57784   1.00
H2       0.70012    0.54357    0.59314   1.00
H2       0.57978    0.53433    0.66339   1.00
H2       0.60765    0.47398    0.66359   1.00
H2       0.66565    0.56010    0.66829   1.00
H2       0.57255    0.43001    0.62937   1.00
H2       0.53099    0.47813    0.62746   1.00
H2       0.58781    0.48284    0.60828   1.00
C4       0.16569    0.36244    0.66453   1.00
C4       0.13665    0.31065    0.64930   1.00
C3       0.21124    0.36473    0.67972   1.00
C3       0.14529    0.25272    0.64886   1.00
C3       0.14774    0.41455    0.66493   1.00
C3       0.09676    0.31659    0.63353   1.00
C2       0.21957    0.46696    0.69541   1.00
C2       0.07496    0.20734    0.61825   1.00
C3       0.23716    0.41530    0.69481   1.00
C3       0.11584    0.20279    0.63365   1.00
C3       0.17544    0.46585    0.68005   1.00
C3       0.06514    0.26425    0.61885   1.00
H1       0.22711    0.32987    0.68023   1.00
H1       0.17287    0.24486    0.65963   1.00
C5       0.10246    0.41524    0.65017   1.00
C5       0.08809    0.37433    0.63255   1.00
H1       0.26951    0.41408    0.70549   1.00
H1       0.12432    0.16230    0.63400   1.00
H1       0.16359    0.50397    0.67981   1.00
H1       0.03321    0.26709    0.60843   1.00
O3       0.07646    0.45834    0.65257   1.00
O3       0.06156    0.38783    0.61544   1.00
Si1      0.00300    0.43091    0.66379   1.00
Si1      0.11277    0.42933    0.59671   1.00
C6       0.00598    0.51020    0.66522   1.00
C6       -0.06081   0.37519    0.64682   1.00
C6       -0.00068   0.39700    0.68817   1.00
C6       0.19954    0.45248    0.59889   1.00
C6       0.07603    0.37360    0.57609   1.00
C6       0.10560    0.50215    0.59218   1.00
C6       0.07443    0.57149    0.67326   1.00
H2       0.00325    0.52158    0.64926   1.00
C6       -0.05203   0.51698    0.67610   1.00
H2       -0.03570   0.39322    0.63217   1.00
C6       -0.08395   0.29755    0.64767   1.00
C6       -0.12844   0.37784    0.64537   1.00
H2       0.04689    0.43612    0.69502   1.00
C6       -0.05920   0.38890    0.70263   1.00
C6       -0.00118   0.32762    0.69036   1.00
C6       0.24071    0.49705    0.61746   1.00
C6       0.22057    0.39666    0.59636   1.00
H2       0.22215    0.48516    0.58566   1.00
H2       0.08521    0.33170    0.57947   1.00
C6       -0.00317   0.33989    0.57382   1.00
C6       0.10711    0.40074    0.55462   1.00
H2       0.05932    0.48309    0.58308   1.00
C6       0.09287    0.53551    0.61112   1.00
C6       0.16341    0.56201    0.57970   1.00
H2       0.11807    0.57814    0.66439   1.00
H2       0.08330    0.56396    0.68911   1.00
H2       0.07399    0.61945    0.67221   1.00
H2       -0.05939   0.55582    0.66855   1.00
H2       -0.10079   0.46980    0.67602   1.00
H2       -0.03960   0.53306    0.69189   1.00
H2       -0.11201   0.27151    0.63394   1.00
H2       -0.04084   0.28898    0.64859   1.00
H2       -0.11753   0.27274    0.66059   1.00
H2       -0.11834   0.42909    0.64175   1.00
H2       -0.16139   0.34473    0.63325   1.00
H2       -0.15726   0.36112    0.65952   1.00
H2       -0.10902   0.35951    0.69539   1.00
H2       -0.06036   0.36320    0.71681   1.00
H2       -0.05199   0.43818    0.70719   1.00
H2       -0.05267   0.28372    0.68955   1.00
H2       0.02881    0.32019    0.67891   1.00
H2       0.01993    0.32538    0.70508   1.00
H2       0.23303    0.46611    0.63091   1.00
H2       0.29538    0.52403    0.61419   1.00
H2       0.22711    0.53556    0.62119   1.00
H2       0.27602    0.42020    0.59524   1.00
H2       0.20458    0.36169    0.60915   1.00
H2       0.19981    0.36686    0.58254   1.00
H2       -0.02245   0.29793    0.56289   1.00
H2       -0.02920   0.31826    0.58817   1.00
H2       -0.01814   0.37621    0.56855   1.00
H2       0.16245    0.42349    0.55462   1.00
H2       0.08702    0.35892    0.54363   1.00
H2       0.09447    0.43860    0.54913   1.00
H2       0.13494    0.55452    0.62191   1.00
H2       0.08505    0.57774    0.60687   1.00
H2       0.04701    0.49820    0.61890   1.00
H2       0.14814    0.59903    0.57529   1.00
H2       0.21043    0.58916    0.58851   1.00
H2       0.17480    0.54393    0.56573   1.00
C4       0.19685    0.83420    0.66447   1.00
C4       0.17404    0.86322    0.64925   1.00
C3       0.15297    0.78597    0.67903   1.00
C3       0.10643    0.85169    0.64822   1.00
C3       0.26758    0.85497    0.66553   1.00
C3       0.22089    0.90611    0.63409   1.00
C2       0.24748    0.78046    0.69539   1.00
C2       0.13227    0.92501    0.61827   1.00
C3       0.17759    0.76011    0.69414   1.00
C3       0.08591    0.88121    0.63305   1.00
C3       0.29121    0.82731    0.68065   1.00
C3       0.19997    0.93767    0.61946   1.00
H1       0.10179    0.76805    0.67903   1.00
H1       0.07022    0.82187    0.65854   1.00
C5       0.31419    0.90300    0.65142   1.00
C5       0.28850    0.91782    0.63370   1.00
H1       0.14352    0.72573    0.70435   1.00
H1       0.03622    0.87059    0.63295   1.00
H1       0.34176    0.84125    0.68088   1.00
H1       0.23524    0.97166    0.60951   1.00
O3       0.38330    0.93134    0.65452   1.00
O3       0.33022    0.94756    0.61707   1.00
Si1      0.42548    1.00382    0.66654   1.00
Si1      0.32503    0.89937    0.59797   1.00
C6       0.50348    1.00436    0.66856   1.00
C6       0.43274    1.06840    0.65004   1.00
C6       0.39143    1.00313    0.69069   1.00
C6       0.26389    0.81152    0.59912   1.00
C6       0.30634    0.93670    0.57745   1.00
C6       0.40703    0.91068    0.59412   1.00
C6       0.49848    0.93635    0.67612   1.00
H2       0.51972    1.00955    0.65274   1.00
C6       0.56562    1.06271    0.68029   1.00
H2       0.42848    1.04529    0.63520   1.00
C6       0.37579    1.08828    0.65061   1.00
C6       0.50152    1.13782    0.64956   1.00
H2       0.38425    0.95556    0.69717   1.00
C6       0.43842    1.06088    0.70589   1.00
C6       0.32072    1.00011    0.69233   1.00
C6       0.26710    0.76937    0.61744   1.00
C6       0.18662    0.78768    0.59585   1.00
H2       0.27687    0.79149    0.58584   1.00
H2       0.25414    0.92493    0.58036   1.00
C6       0.34932    1.01633    0.57601   1.00
C6       0.30642    0.90872    0.55577   1.00
H2       0.43373    0.95814    0.58552   1.00
C6       0.45124    0.92305    0.61348   1.00
C6       0.41342    0.85586    0.58132   1.00
H2       0.46383    0.89309    0.66669   1.00
H2       0.48022    0.92508    0.69177   1.00
H2       0.54808    0.93919    0.67545   1.00
H2       0.61343    1.07296    0.67316   1.00
H2       0.56490    1.11033    0.68052   1.00
H2       0.56803    1.04892    0.69602   1.00
H2       0.37818    1.11734    0.63707   1.00
H2       0.32491    1.04370    0.65085   1.00
H2       0.38158    1.11992    0.66378   1.00
H2       0.54453    1.13034    0.64621   1.00
H2       0.50124    1.17135    0.63766   1.00
H2       0.51079    1.16484    0.66398   1.00
H2       0.45779    1.11126    0.69913   1.00
H2       0.41156    1.05921    0.71988   1.00
H2       0.48124    1.05531    0.71073   1.00
H2       0.32610    1.05077    0.69190   1.00
H2       0.28528    0.97044    0.68042   1.00
H2       0.29608    0.97671    0.70673   1.00
H2       0.24132    0.77419    0.63075   1.00
H2       0.24181    0.71515    0.61363   1.00
H2       0.31927    0.78466    0.62167   1.00
H2       0.15680    0.73224    0.59414   1.00
H2       0.16490    0.80087    0.60858   1.00
H2       0.17805    0.80910    0.58210   1.00
H2       0.32654    1.03533    0.56504   1.00
H2       0.35083    1.04024    0.59055   1.00
H2       0.40169    1.03396    0.57125   1.00
H2       0.27575    0.85322    0.55517   1.00
H2       0.28455    0.92856    0.54474   1.00
H2       0.35810    0.92406    0.55076   1.00
H2       0.42839    0.87969    0.62383   1.00
H2       0.50256    0.93353    0.60969   1.00
H2       0.45684    0.96726    0.62160   1.00
H2       0.46668    0.87374    0.57741   1.00
H2       0.39429    0.80806    0.58967   1.00
H2       0.38552    0.84500    0.56706   1.00
