data_IRMOF10_interpen_symm_ligand2cp_label_d.

_audit_creation_method             'generated by an auxiliary program of Tobunporous'

_symmetry_space_group_name_H-M     'P 1'
_symmetry_Int_Tables_number        1
_symmetry_cell_setting             triclinic

_cell_length_a                    22.6523
_cell_length_b                    22.6523
_cell_length_c                    65.9502
_cell_angle_alpha                 90.0000
_cell_angle_beta                  90.0000
_cell_angle_gamma                 120.0000

loop_
_atom_site_label
_atom_site_fract_x
_atom_site_fract_y
_atom_site_fract_z
_atom_site_occupancy
O1       0.00000    0.00000    0.57470   1.00
Zn      0.00000    0.00000    0.54560   1.00
Zn      0.94843    0.04287    0.58357   1.00
Zn      0.09443    0.05157    0.58357   1.00
Zn      0.95713    0.90557    0.58357   1.00
O2       0.93860    0.02610    0.53560   1.00
O2       0.08750    0.06140    0.53560   1.00
O2       0.97390    0.91250    0.53560   1.00
O2       0.91300    0.07160    0.56150   1.00
O2       0.00463    0.12027    0.60077   1.00
O2       0.87413    0.98077    0.60037   1.00
O2       0.15860    0.08700    0.56150   1.00
O2       0.10663    0.12587    0.60037   1.00
O2       0.11563    0.99537    0.60077   1.00
O2       0.92840    0.84140    0.56150   1.00
O2       0.87973    0.88437    0.60077   1.00
O2       0.01923    0.89337    0.60037   1.00
C1       0.91390    0.06020    0.54330   1.00
C1       0.14630    0.08610    0.54330   1.00
C1       0.93980    0.85370    0.54330   1.00
C1       0.06663    0.14397    0.60637   1.00
C1       0.85603    0.92267    0.60637   1.00
C1       0.07733    0.93337    0.60637   1.00
O1       0.00000    0.00000    0.92530   1.00
Zn      0.00000    0.00000    0.95440   1.00
Zn      0.04287    0.94843    0.91643   1.00
Zn      0.05157    0.09443    0.91643   1.00
Zn      0.90557    0.95713    0.91643   1.00
O2       0.02610    0.93860    0.96440   1.00
O2       0.06140    0.08750    0.96440   1.00
O2       0.91250    0.97390    0.96440   1.00
O2       0.07160    0.91300    0.93850   1.00
O2       0.12027    0.00463    0.89923   1.00
O2       0.98077    0.87413    0.89963   1.00
O2       0.08700    0.15860    0.93850   1.00
O2       0.12587    0.10663    0.89963   1.00
O2       0.99537    0.11563    0.89923   1.00
O2       0.84140    0.92840    0.93850   1.00
O2       0.88437    0.87973    0.89923   1.00
O2       0.89337    0.01923    0.89963   1.00
C1       0.06020    0.91390    0.95670   1.00
C1       0.08610    0.14630    0.95670   1.00
C1       0.85370    0.93980    0.95670   1.00
C1       0.14397    0.06663    0.89363   1.00
C1       0.92267    0.85603    0.89363   1.00
C1       0.93337    0.07733    0.89363   1.00
O1       0.00000    0.00000    0.42530   1.00
Zn      0.00000    0.00000    0.45440   1.00
Zn      0.05157    0.95713    0.41643   1.00
Zn      0.90557    0.94843    0.41643   1.00
Zn      0.04287    0.09443    0.41643   1.00
O2       0.06140    0.97390    0.46440   1.00
O2       0.91250    0.93860    0.46440   1.00
O2       0.02610    0.08750    0.46440   1.00
O2       0.08700    0.92840    0.43850   1.00
O2       0.99537    0.87973    0.39923   1.00
O2       0.12587    0.01923    0.39963   1.00
O2       0.84140    0.91300    0.43850   1.00
O2       0.89337    0.87413    0.39963   1.00
O2       0.88437    0.00463    0.39923   1.00
O2       0.07160    0.15860    0.43850   1.00
O2       0.12027    0.11563    0.39923   1.00
O2       0.98077    0.10663    0.39963   1.00
C1       0.08610    0.93980    0.45670   1.00
C1       0.85370    0.91390    0.45670   1.00
C1       0.06020    0.14630    0.45670   1.00
C1       0.93337    0.85603    0.39363   1.00
C1       0.14397    0.07733    0.39363   1.00
C1       0.92267    0.06663    0.39363   1.00
O1       0.00000    0.00000    0.07470   1.00
Zn      0.00000    0.00000    0.04560   1.00
Zn      0.95713    0.05157    0.08357   1.00
Zn      0.94843    0.90557    0.08357   1.00
Zn      0.09443    0.04287    0.08357   1.00
O2       0.97390    0.06140    0.03560   1.00
O2       0.93860    0.91250    0.03560   1.00
O2       0.08750    0.02610    0.03560   1.00
O2       0.92840    0.08700    0.06150   1.00
O2       0.87973    0.99537    0.10077   1.00
O2       0.01923    0.12587    0.10037   1.00
O2       0.91300    0.84140    0.06150   1.00
O2       0.87413    0.89337    0.10037   1.00
O2       0.00463    0.88437    0.10077   1.00
O2       0.15860    0.07160    0.06150   1.00
O2       0.11563    0.12027    0.10077   1.00
O2       0.10663    0.98077    0.10037   1.00
C1       0.93980    0.08610    0.04330   1.00
C1       0.91390    0.85370    0.04330   1.00
C1       0.14630    0.06020    0.04330   1.00
C1       0.85603    0.93337    0.10637   1.00
C1       0.07733    0.14397    0.10637   1.00
C1       0.06663    0.92267    0.10637   1.00
O1       0.66667    0.33333    0.90803   1.00
Zn      0.66667    0.33333    0.87893   1.00
Zn      0.61510    0.37620    0.91690   1.00
Zn      0.76110    0.38490    0.91690   1.00
Zn      0.62380    0.23890    0.91690   1.00
O2       0.60527    0.35943    0.86893   1.00
O2       0.75417    0.39473    0.86893   1.00
O2       0.64057    0.24583    0.86893   1.00
O2       0.57967    0.40493    0.89483   1.00
O2       0.67130    0.45360    0.93410   1.00
O2       0.54080    0.31410    0.93370   1.00
O2       0.82527    0.42033    0.89483   1.00
O2       0.77330    0.45920    0.93370   1.00
O2       0.78230    0.32870    0.93410   1.00
O2       0.59507    0.17473    0.89483   1.00
O2       0.54640    0.21770    0.93410   1.00
O2       0.68590    0.22670    0.93370   1.00
C1       0.58057    0.39353    0.87663   1.00
C1       0.81297    0.41943    0.87663   1.00
C1       0.60647    0.18703    0.87663   1.00
C1       0.73330    0.47730    0.93970   1.00
C1       0.52270    0.25600    0.93970   1.00
C1       0.74400    0.26670    0.93970   1.00
O1       0.66667    0.33333    0.25863   1.00
Zn      0.66667    0.33333    0.28773   1.00
Zn      0.70953    0.28177    0.24977   1.00
Zn      0.71823    0.42777    0.24977   1.00
Zn      0.57223    0.29047    0.24977   1.00
O2       0.69277    0.27193    0.29773   1.00
O2       0.72807    0.42083    0.29773   1.00
O2       0.57917    0.30723    0.29773   1.00
O2       0.73827    0.24633    0.27183   1.00
O2       0.78693    0.33797    0.23257   1.00
O2       0.64743    0.20747    0.23297   1.00
O2       0.75367    0.49193    0.27183   1.00
O2       0.79253    0.43997    0.23297   1.00
O2       0.66203    0.44897    0.23257   1.00
O2       0.50807    0.26173    0.27183   1.00
O2       0.55103    0.21307    0.23257   1.00
O2       0.56003    0.35257    0.23297   1.00
C1       0.72687    0.24723    0.29003   1.00
C1       0.75277    0.47963    0.29003   1.00
C1       0.52037    0.27313    0.29003   1.00
C1       0.81063    0.39997    0.22697   1.00
C1       0.58933    0.18937    0.22697   1.00
C1       0.60003    0.41067    0.22697   1.00
O1       0.66667    0.33333    0.75863   1.00
Zn      0.66667    0.33333    0.78773   1.00
Zn      0.71823    0.29047    0.74977   1.00
Zn      0.57223    0.28177    0.74977   1.00
Zn      0.70953    0.42777    0.74977   1.00
O2       0.72807    0.30723    0.79773   1.00
O2       0.57917    0.27193    0.79773   1.00
O2       0.69277    0.42083    0.79773   1.00
O2       0.75367    0.26173    0.77183   1.00
O2       0.66203    0.21307    0.73257   1.00
O2       0.79253    0.35257    0.73297   1.00
O2       0.50807    0.24633    0.77183   1.00
O2       0.56003    0.20747    0.73297   1.00
O2       0.55103    0.33797    0.73257   1.00
O2       0.73827    0.49193    0.77183   1.00
O2       0.78693    0.44897    0.73257   1.00
O2       0.64743    0.43997    0.73297   1.00
C1       0.75277    0.27313    0.79003   1.00
C1       0.52037    0.24723    0.79003   1.00
C1       0.72687    0.47963    0.79003   1.00
C1       0.60003    0.18937    0.72697   1.00
C1       0.81063    0.41067    0.72697   1.00
C1       0.58933    0.39997    0.72697   1.00
O1       0.66667    0.33333    0.40803   1.00
Zn      0.66667    0.33333    0.37893   1.00
Zn      0.62380    0.38490    0.41690   1.00
Zn      0.61510    0.23890    0.41690   1.00
Zn      0.76110    0.37620    0.41690   1.00
O2       0.64057    0.39473    0.36893   1.00
O2       0.60527    0.24583    0.36893   1.00
O2       0.75417    0.35943    0.36893   1.00
O2       0.59507    0.42033    0.39483   1.00
O2       0.54640    0.32870    0.43410   1.00
O2       0.68590    0.45920    0.43370   1.00
O2       0.57967    0.17473    0.39483   1.00
O2       0.54080    0.22670    0.43370   1.00
O2       0.67130    0.21770    0.43410   1.00
O2       0.82527    0.40493    0.39483   1.00
O2       0.78230    0.45360    0.43410   1.00
O2       0.77330    0.31410    0.43370   1.00
C1       0.60647    0.41943    0.37663   1.00
C1       0.58057    0.18703    0.37663   1.00
C1       0.81297    0.39353    0.37663   1.00
C1       0.52270    0.26670    0.43970   1.00
C1       0.74400    0.47730    0.43970   1.00
C1       0.73330    0.25600    0.43970   1.00
O1       0.33333    0.66667    0.24137   1.00
Zn      0.33333    0.66667    0.21227   1.00
Zn      0.28177    0.70953    0.25023   1.00
Zn      0.42777    0.71823    0.25023   1.00
Zn      0.29047    0.57223    0.25023   1.00
O2       0.27193    0.69277    0.20227   1.00
O2       0.42083    0.72807    0.20227   1.00
O2       0.30723    0.57917    0.20227   1.00
O2       0.24633    0.73827    0.22817   1.00
O2       0.33797    0.78693    0.26743   1.00
O2       0.20747    0.64743    0.26703   1.00
O2       0.49193    0.75367    0.22817   1.00
O2       0.43997    0.79253    0.26703   1.00
O2       0.44897    0.66203    0.26743   1.00
O2       0.26173    0.50807    0.22817   1.00
O2       0.21307    0.55103    0.26743   1.00
O2       0.35257    0.56003    0.26703   1.00
C1       0.24723    0.72687    0.20997   1.00
C1       0.47963    0.75277    0.20997   1.00
C1       0.27313    0.52037    0.20997   1.00
C1       0.39997    0.81063    0.27303   1.00
C1       0.18937    0.58933    0.27303   1.00
C1       0.41067    0.60003    0.27303   1.00
O1       0.33333    0.66667    0.59197   1.00
Zn      0.33333    0.66667    0.62107   1.00
Zn      0.37620    0.61510    0.58310   1.00
Zn      0.38490    0.76110    0.58310   1.00
Zn      0.23890    0.62380    0.58310   1.00
O2       0.35943    0.60527    0.63107   1.00
O2       0.39473    0.75417    0.63107   1.00
O2       0.24583    0.64057    0.63107   1.00
O2       0.40493    0.57967    0.60517   1.00
O2       0.45360    0.67130    0.56590   1.00
O2       0.31410    0.54080    0.56630   1.00
O2       0.42033    0.82527    0.60517   1.00
O2       0.45920    0.77330    0.56630   1.00
O2       0.32870    0.78230    0.56590   1.00
O2       0.17473    0.59507    0.60517   1.00
O2       0.21770    0.54640    0.56590   1.00
O2       0.22670    0.68590    0.56630   1.00
C1       0.39353    0.58057    0.62337   1.00
C1       0.41943    0.81297    0.62337   1.00
C1       0.18703    0.60647    0.62337   1.00
C1       0.47730    0.73330    0.56030   1.00
C1       0.25600    0.52270    0.56030   1.00
C1       0.26670    0.74400    0.56030   1.00
O1       0.33333    0.66667    0.09197   1.00
Zn      0.33333    0.66667    0.12107   1.00
Zn      0.38490    0.62380    0.08310   1.00
Zn      0.23890    0.61510    0.08310   1.00
Zn      0.37620    0.76110    0.08310   1.00
O2       0.39473    0.64057    0.13107   1.00
O2       0.24583    0.60527    0.13107   1.00
O2       0.35943    0.75417    0.13107   1.00
O2       0.42033    0.59507    0.10517   1.00
O2       0.32870    0.54640    0.06590   1.00
O2       0.45920    0.68590    0.06630   1.00
O2       0.17473    0.57967    0.10517   1.00
O2       0.22670    0.54080    0.06630   1.00
O2       0.21770    0.67130    0.06590   1.00
O2       0.40493    0.82527    0.10517   1.00
O2       0.45360    0.78230    0.06590   1.00
O2       0.31410    0.77330    0.06630   1.00
C1       0.41943    0.60647    0.12337   1.00
C1       0.18703    0.58057    0.12337   1.00
C1       0.39353    0.81297    0.12337   1.00
C1       0.26670    0.52270    0.06030   1.00
C1       0.47730    0.74400    0.06030   1.00
C1       0.25600    0.73330    0.06030   1.00
O1       0.33333    0.66667    0.74137   1.00
Zn      0.33333    0.66667    0.71227   1.00
Zn      0.29047    0.71823    0.75023   1.00
Zn      0.28177    0.57223    0.75023   1.00
Zn      0.42777    0.70953    0.75023   1.00
O2       0.30723    0.72807    0.70227   1.00
O2       0.27193    0.57917    0.70227   1.00
O2       0.42083    0.69277    0.70227   1.00
O2       0.26173    0.75367    0.72817   1.00
O2       0.21307    0.66203    0.76743   1.00
O2       0.35257    0.79253    0.76703   1.00
O2       0.24633    0.50807    0.72817   1.00
O2       0.20747    0.56003    0.76703   1.00
O2       0.33797    0.55103    0.76743   1.00
O2       0.49193    0.73827    0.72817   1.00
O2       0.44897    0.78693    0.76743   1.00
O2       0.43997    0.64743    0.76703   1.00
C1       0.27313    0.75277    0.70997   1.00
C1       0.24723    0.52037    0.70997   1.00
C1       0.47963    0.72687    0.70997   1.00
C1       0.18937    0.60003    0.77303   1.00
C1       0.41067    0.81063    0.77303   1.00
C1       0.39997    0.58933    0.77303   1.00
C2       0.77100    0.52109    0.45972   1.00
C3       0.73601    0.52552    0.47524   1.00
H1       0.69141    0.49064    0.47726   1.00
C3       0.83669    0.57170    0.45740   1.00
H1       0.86242    0.56911    0.44681   1.00
C3a      0.76330    0.57964    0.48852   1.00
H1       0.73893    0.58268    0.49943   1.00
C3b      0.86628    0.62691    0.47037   1.00
H1       0.91156    0.66088    0.46885   1.00
C6       0.82992    0.63080    0.48639   1.00
C6       0.86165    0.68930    0.50061   1.00
C3c      0.89257    0.68521    0.51828   1.00
H1       0.89822    0.64780    0.52053   1.00
C3d      0.85780    0.74703    0.49577   1.00
H1       0.83689    0.75126    0.48416   1.00
C3       0.91879    0.73957    0.53167   1.00
H1       0.94056    0.73746    0.54340   1.00
C3       0.88478    0.80064    0.51073   1.00
H1       0.88212    0.83961    0.50822   1.00
C2       0.91370    0.79640    0.52810   1.00
C2       0.47891    0.24991    0.45972   1.00
C3       0.47448    0.21049    0.47524   1.00
H1       0.50936    0.20077    0.47726   1.00
C3       0.42830    0.26499    0.45740   1.00
H1       0.43089    0.29331    0.44681   1.00
C3a      0.42036    0.18366    0.48852   1.00
H1       0.41732    0.15626    0.49943   1.00
C3b      0.37309    0.23937    0.47037   1.00
H1       0.33912    0.25068    0.46885   1.00
C6       0.36920    0.19912    0.48639   1.00
C6       0.31070    0.17235    0.50061   1.00
C3c      0.31479    0.20736    0.51828   1.00
H1       0.35220    0.25042    0.52053   1.00
C3d      0.25297    0.11077    0.49577   1.00
H1       0.24874    0.08563    0.48416   1.00
C3       0.26043    0.17922    0.53167   1.00
H1       0.26254    0.20310    0.54340   1.00
C3       0.19936    0.08414    0.51073   1.00
H1       0.16039    0.04251    0.50822   1.00
C2       0.20360    0.11730    0.52810   1.00
C2       0.75009    0.22900    0.45972   1.00
C3       0.78951    0.26399    0.47524   1.00
H1       0.79923    0.30859    0.47726   1.00
C3       0.73501    0.16331    0.45740   1.00
H1       0.70669    0.13758    0.44681   1.00
C3a      0.81634    0.23670    0.48852   1.00
H1       0.84374    0.26107    0.49943   1.00
C3b      0.76063    0.13372    0.47037   1.00
H1       0.74932    0.08844    0.46885   1.00
C6       0.80088    0.17008    0.48639   1.00
C6       0.82765    0.13835    0.50061   1.00
C3c      0.79264    0.10743    0.51828   1.00
H1       0.74958    0.10178    0.52053   1.00
C3d      0.88923    0.14220    0.49577   1.00
H1       0.91437    0.16311    0.48416   1.00
C3       0.82078    0.08121    0.53167   1.00
H1       0.79690    0.05944    0.54340   1.00
C3       0.91586    0.11522    0.51073   1.00
H1       0.95749    0.11788    0.50822   1.00
C2       0.88270    0.08630    0.52810   1.00
C2       0.52109    0.77100    0.04028   1.00
C3       0.52552    0.73601    0.02476   1.00
H1       0.49064    0.69141    0.02274   1.00
C3       0.57170    0.83669    0.04260   1.00
H1       0.56911    0.86242    0.05319   1.00
C3a      0.57964    0.76330    0.01148   1.00
H1       0.58268    0.73893    0.00057   1.00
C3b      0.62691    0.86628    0.02963   1.00
H1       0.66088    0.91156    0.03115   1.00
C6       0.63080    0.82992    0.01361   1.00
C6       0.68930    0.86165    0.99939   1.00
C3c      0.68521    0.89257    0.98172   1.00
H1       0.64780    0.89822    0.97947   1.00
C3d      0.74703    0.85780    0.00423   1.00
H1       0.75126    0.83689    0.01584   1.00
C3       0.73957    0.91879    0.96833   1.00
H1       0.73746    0.94056    0.95660   1.00
C3       0.80064    0.88478    0.98927   1.00
H1       0.83961    0.88212    0.99178   1.00
C2       0.79640    0.91370    0.97190   1.00
C2       0.24991    0.47891    0.04028   1.00
C3       0.21049    0.47448    0.02476   1.00
H1       0.20077    0.50936    0.02274   1.00
C3       0.26499    0.42830    0.04260   1.00
H1       0.29331    0.43089    0.05319   1.00
C3a      0.18366    0.42036    0.01148   1.00
H1       0.15626    0.41732    0.00057   1.00
C3b      0.23937    0.37309    0.02963   1.00
H1       0.25068    0.33912    0.03115   1.00
C6       0.19912    0.36920    0.01361   1.00
C6       0.17235    0.31070    0.99939   1.00
C3c      0.20736    0.31479    0.98172   1.00
H1       0.25042    0.35220    0.97947   1.00
C3d      0.11077    0.25297    0.00423   1.00
H1       0.08563    0.24874    0.01584   1.00
C3       0.17922    0.26043    0.96833   1.00
H1       0.20310    0.26254    0.95660   1.00
C3       0.08414    0.19936    0.98927   1.00
H1       0.04251    0.16039    0.99178   1.00
C2       0.11730    0.20360    0.97190   1.00
C2       0.22900    0.75009    0.04028   1.00
C3       0.26399    0.78951    0.02476   1.00
H1       0.30859    0.79923    0.02274   1.00
C3       0.16331    0.73501    0.04260   1.00
H1       0.13758    0.70669    0.05319   1.00
C3a      0.23670    0.81634    0.01148   1.00
H1       0.26107    0.84374    0.00057   1.00
C3b      0.13372    0.76063    0.02963   1.00
H1       0.08844    0.74932    0.03115   1.00
C6       0.17008    0.80088    0.01361   1.00
C6       0.13835    0.82765    0.99939   1.00
C3c      0.10743    0.79264    0.98172   1.00
H1       0.10178    0.74958    0.97947   1.00
C3d      0.14220    0.88923    0.00423   1.00
H1       0.16311    0.91437    0.01584   1.00
C3       0.08121    0.82078    0.96833   1.00
H1       0.05944    0.79690    0.95660   1.00
C3       0.11522    0.91586    0.98927   1.00
H1       0.11788    0.95749    0.99178   1.00
C2       0.08630    0.88270    0.97190   1.00
C2       0.22900    0.47891    0.54028   1.00
C3       0.26399    0.47448    0.52476   1.00
H1       0.30859    0.50936    0.52274   1.00
C3       0.16331    0.42830    0.54260   1.00
H1       0.13758    0.43089    0.55319   1.00
C3a      0.23670    0.42036    0.51148   1.00
H1       0.26107    0.41732    0.50057   1.00
C3b      0.13372    0.37309    0.52963   1.00
H1       0.08844    0.33912    0.53115   1.00
C6       0.17008    0.36920    0.51361   1.00
C6       0.13835    0.31070    0.49939   1.00
C3c      0.10743    0.31479    0.48172   1.00
H1       0.10178    0.35220    0.47947   1.00
C3d      0.14220    0.25297    0.50423   1.00
H1       0.16311    0.24874    0.51584   1.00
C3       0.08121    0.26043    0.46833   1.00
H1       0.05944    0.26254    0.45660   1.00
C3       0.11522    0.19936    0.48927   1.00
H1       0.11788    0.16039    0.49178   1.00
C2       0.08630    0.20360    0.47190   1.00
C2       0.52109    0.75009    0.54028   1.00
C3       0.52552    0.78951    0.52476   1.00
H1       0.49064    0.79923    0.52274   1.00
C3       0.57170    0.73501    0.54260   1.00
H1       0.56911    0.70669    0.55319   1.00
C3a      0.57964    0.81634    0.51148   1.00
H1       0.58268    0.84374    0.50057   1.00
C3b      0.62691    0.76063    0.52963   1.00
H1       0.66088    0.74932    0.53115   1.00
C6       0.63080    0.80088    0.51361   1.00
C6       0.68930    0.82765    0.49939   1.00
C3c      0.68521    0.79264    0.48172   1.00
H1       0.64780    0.74958    0.47947   1.00
C3d      0.74703    0.88923    0.50423   1.00
H1       0.75126    0.91437    0.51584   1.00
C3       0.73957    0.82078    0.46833   1.00
H1       0.73746    0.79690    0.45660   1.00
C3       0.80064    0.91586    0.48927   1.00
H1       0.83961    0.95749    0.49178   1.00
C2       0.79640    0.88270    0.47190   1.00
C2       0.24991    0.77100    0.54028   1.00
C3       0.21049    0.73601    0.52476   1.00
H1       0.20077    0.69141    0.52274   1.00
C3       0.26499    0.83669    0.54260   1.00
H1       0.29331    0.86242    0.55319   1.00
C3a      0.18366    0.76330    0.51148   1.00
H1       0.15626    0.73893    0.50057   1.00
C3b      0.23937    0.86628    0.52963   1.00
H1       0.25068    0.91156    0.53115   1.00
C6       0.19912    0.82992    0.51361   1.00
C6       0.17235    0.86165    0.49939   1.00
C3c      0.20736    0.89257    0.48172   1.00
H1       0.25042    0.89822    0.47947   1.00
C3d      0.11077    0.85780    0.50423   1.00
H1       0.08563    0.83689    0.51584   1.00
C3       0.17922    0.91879    0.46833   1.00
H1       0.20310    0.94056    0.45660   1.00
C3       0.08414    0.88478    0.48927   1.00
H1       0.04251    0.88212    0.49178   1.00
C2       0.11730    0.91370    0.47190   1.00
C2       0.47891    0.22900    0.95972   1.00
C3       0.47448    0.26399    0.97524   1.00
H1       0.50936    0.30859    0.97726   1.00
C3       0.42830    0.16331    0.95740   1.00
H1       0.43089    0.13758    0.94681   1.00
C3a      0.42036    0.23670    0.98852   1.00
H1       0.41732    0.26107    0.99943   1.00
C3b      0.37309    0.13372    0.97037   1.00
H1       0.33912    0.08844    0.96885   1.00
C6       0.36920    0.17008    0.98639   1.00
C6       0.31070    0.13835    0.00061   1.00
C3c      0.31479    0.10743    0.01828   1.00
H1       0.35220    0.10178    0.02053   1.00
C3d      0.25297    0.14220    0.99577   1.00
H1       0.24874    0.16311    0.98416   1.00
C3       0.26043    0.08121    0.03167   1.00
H1       0.26254    0.05944    0.04340   1.00
C3       0.19936    0.11522    0.01073   1.00
H1       0.16039    0.11788    0.00822   1.00
C2       0.20360    0.08630    0.02810   1.00
C2       0.75009    0.52109    0.95972   1.00
C3       0.78951    0.52552    0.97524   1.00
H1       0.79923    0.49064    0.97726   1.00
C3       0.73501    0.57170    0.95740   1.00
H1       0.70669    0.56911    0.94681   1.00
C3a      0.81634    0.57964    0.98852   1.00
H1       0.84374    0.58268    0.99943   1.00
C3b      0.76063    0.62691    0.97037   1.00
H1       0.74932    0.66088    0.96885   1.00
C6       0.80088    0.63080    0.98639   1.00
C6       0.82765    0.68930    0.00061   1.00
C3c      0.79264    0.68521    0.01828   1.00
H1       0.74958    0.64780    0.02053   1.00
C3d      0.88923    0.74703    0.99577   1.00
H1       0.91437    0.75126    0.98416   1.00
C3       0.82078    0.73957    0.03167   1.00
H1       0.79690    0.73746    0.04340   1.00
C3       0.91586    0.80064    0.01073   1.00
H1       0.95749    0.83961    0.00822   1.00
C2       0.88270    0.79640    0.02810   1.00
C2       0.77100    0.24991    0.95972   1.00
C3       0.73601    0.21049    0.97524   1.00
H1       0.69141    0.20077    0.97726   1.00
C3       0.83669    0.26499    0.95740   1.00
H1       0.86242    0.29331    0.94681   1.00
C3a      0.76330    0.18366    0.98852   1.00
H1       0.73893    0.15626    0.99943   1.00
C3b      0.86628    0.23937    0.97037   1.00
H1       0.91156    0.25068    0.96885   1.00
C6       0.82992    0.19912    0.98639   1.00
C6       0.86165    0.17235    0.00061   1.00
C3c      0.89257    0.20736    0.01828   1.00
H1       0.89822    0.25042    0.02053   1.00
C3d      0.85780    0.11077    0.99577   1.00
H1       0.83689    0.08563    0.98416   1.00
C3       0.91879    0.17922    0.03167   1.00
H1       0.94056    0.20310    0.04340   1.00
C3       0.88478    0.08414    0.01073   1.00
H1       0.88212    0.04251    0.00822   1.00
C2       0.91370    0.11730    0.02810   1.00
C2       0.43767    0.85442    0.79305   1.00
C3       0.40268    0.85885    0.80857   1.00
H1       0.35808    0.82397    0.81059   1.00
C3       0.50336    0.90503    0.79073   1.00
H1       0.52909    0.90244    0.78014   1.00
C3a      0.42997    0.91297    0.82185   1.00
H1       0.40560    0.91601    0.83276   1.00
C3b      0.53295    0.96024    0.80370   1.00
H1       0.57823    0.99421    0.80218   1.00
C6       0.49659    0.96413    0.81972   1.00
C6       0.52832    0.02263    0.83394   1.00
C3c      0.55924    0.01854    0.85161   1.00
H1       0.56489    -0.01887   0.85386   1.00
C3d      0.52447    0.08036    0.82910   1.00
H1       0.50356    0.08459    0.81749   1.00
C3       0.58546    0.07290    0.86500   1.00
H1       0.60723    0.07079    0.87673   1.00
C3       0.55145    0.13397    0.84406   1.00
H1       0.54879    0.17294    0.84155   1.00
C2       0.58037    0.12973    0.86143   1.00
C2       0.14558    0.58324    0.79305   1.00
C3       0.14115    0.54382    0.80857   1.00
H1       0.17603    0.53410    0.81059   1.00
C3       0.09497    0.59832    0.79073   1.00
H1       0.09756    0.62664    0.78014   1.00
C3a      0.08703    0.51699    0.82185   1.00
H1       0.08399    0.48959    0.83276   1.00
C3b      0.03976    0.57270    0.80370   1.00
H1       0.00579    0.58401    0.80218   1.00
C6       0.03587    0.53245    0.81972   1.00
C6       0.97737    0.50568    0.83394   1.00
C3c      0.98146    0.54069    0.85161   1.00
H1       1.01887    0.58375    0.85386   1.00
C3d      0.91964    0.44410    0.82910   1.00
H1       0.91541    0.41896    0.81749   1.00
C3       0.92710    0.51255    0.86500   1.00
H1       0.92921    0.53643    0.87673   1.00
C3       0.86603    0.41747    0.84406   1.00
H1       0.82706    0.37584    0.84155   1.00
C2       0.87027    0.45063    0.86143   1.00
C2       0.41676    0.56233    0.79305   1.00
C3       0.45618    0.59732    0.80857   1.00
H1       0.46590    0.64192    0.81059   1.00
C3       0.40168    0.49664    0.79073   1.00
H1       0.37336    0.47091    0.78014   1.00
C3a      0.48301    0.57003    0.82185   1.00
H1       0.51041    0.59440    0.83276   1.00
C3b      0.42730    0.46705    0.80370   1.00
H1       0.41599    0.42177    0.80218   1.00
C6       0.46755    0.50341    0.81972   1.00
C6       0.49432    0.47168    0.83394   1.00
C3c      0.45931    0.44076    0.85161   1.00
H1       0.41625    0.43511    0.85386   1.00
C3d      0.55590    0.47553    0.82910   1.00
H1       0.58104    0.49644    0.81749   1.00
C3       0.48745    0.41454    0.86500   1.00
H1       0.46357    0.39277    0.87673   1.00
C3       0.58253    0.44855    0.84406   1.00
H1       0.62416    0.45121    0.84155   1.00
C2       0.54937    0.41963    0.86143   1.00
C2       0.18776    0.10433    0.37361   1.00
C3       0.19219    0.06934    0.35809   1.00
H1       0.15731    0.02474    0.35607   1.00
C3       0.23837    0.17002    0.37593   1.00
H1       0.23578    0.19575    0.38652   1.00
C3a      0.24631    0.09663    0.34481   1.00
H1       0.24935    0.07226    0.33390   1.00
C3b      0.29358    0.19961    0.36296   1.00
H1       0.32755    0.24489    0.36448   1.00
C6       0.29747    0.16325    0.34694   1.00
C6       0.35597    0.19498    0.33272   1.00
C3c      0.35188    0.22590    0.31505   1.00
H1       0.31447    0.23155    0.31280   1.00
C3d      0.41370    0.19113    0.33756   1.00
H1       0.41793    0.17022    0.34917   1.00
C3       0.40624    0.25212    0.30166   1.00
H1       0.40413    0.27389    0.28993   1.00
C3       0.46731    0.21811    0.32260   1.00
H1       0.50628    0.21545    0.32511   1.00
C2       0.46307    0.24703    0.30523   1.00
C2       0.91658    0.81224    0.37361   1.00
C3       0.87716    0.80781    0.35809   1.00
H1       0.86744    0.84269    0.35607   1.00
C3       0.93166    0.76163    0.37593   1.00
H1       0.95998    0.76422    0.38652   1.00
C3a      0.85033    0.75369    0.34481   1.00
H1       0.82293    0.75065    0.33390   1.00
C3b      0.90604    0.70642    0.36296   1.00
H1       0.91735    0.67245    0.36448   1.00
C6       0.86579    0.70253    0.34694   1.00
C6       0.83902    0.64403    0.33272   1.00
C3c      0.87403    0.64812    0.31505   1.00
H1       0.91709    0.68553    0.31280   1.00
C3d      0.77744    0.58630    0.33756   1.00
H1       0.75230    0.58207    0.34917   1.00
C3       0.84589    0.59376    0.30166   1.00
H1       0.86977    0.59587    0.28993   1.00
C3       0.75081    0.53269    0.32260   1.00
H1       0.70918    0.49372    0.32511   1.00
C2       0.78397    0.53693    0.30523   1.00
C2       0.89567    0.08342    0.37361   1.00
C3       0.93066    0.12284    0.35809   1.00
H1       0.97526    0.13256    0.35607   1.00
C3       0.82998    0.06834    0.37593   1.00
H1       0.80425    0.04002    0.38652   1.00
C3a      0.90337    0.14967    0.34481   1.00
H1       0.92774    0.17707    0.33390   1.00
C3b      0.80039    0.09396    0.36296   1.00
H1       0.75511    0.08265    0.36448   1.00
C6       0.83675    0.13421    0.34694   1.00
C6       0.80502    0.16098    0.33272   1.00
C3c      0.77410    0.12597    0.31505   1.00
H1       0.76845    0.08291    0.31280   1.00
C3d      0.80887    0.22256    0.33756   1.00
H1       0.82978    0.24770    0.34917   1.00
C3       0.74788    0.15411    0.30166   1.00
H1       0.72611    0.13023    0.28993   1.00
C3       0.78189    0.24919    0.32260   1.00
H1       0.78455    0.29082    0.32511   1.00
C2       0.75297    0.21603    0.30523   1.00
C2       0.89567    0.81224    0.87361   1.00
C3       0.93066    0.80781    0.85809   1.00
H1       0.97526    0.84269    0.85607   1.00
C3       0.82998    0.76163    0.87593   1.00
H1       0.80425    0.76422    0.88652   1.00
C3a      0.90337    0.75369    0.84481   1.00
H1       0.92774    0.75065    0.83390   1.00
C3b      0.80039    0.70642    0.86296   1.00
H1       0.75511    0.67245    0.86448   1.00
C6       0.83675    0.70253    0.84694   1.00
C6       0.80502    0.64403    0.83272   1.00
C3c      0.77410    0.64812    0.81505   1.00
H1       0.76845    0.68553    0.81280   1.00
C3d      0.80887    0.58630    0.83756   1.00
H1       0.82978    0.58207    0.84917   1.00
C3       0.74788    0.59376    0.80166   1.00
H1       0.72611    0.59587    0.78993   1.00
C3       0.78189    0.53269    0.82260   1.00
H1       0.78455    0.49372    0.82511   1.00
C2       0.75297    0.53693    0.80523   1.00
C2       0.18776    0.08342    0.87361   1.00
C3       0.19219    0.12284    0.85809   1.00
H1       0.15731    0.13256    0.85607   1.00
C3       0.23837    0.06834    0.87593   1.00
H1       0.23578    0.04002    0.88652   1.00
C3a      0.24631    0.14967    0.84481   1.00
H1       0.24935    0.17707    0.83390   1.00
C3b      0.29358    0.09396    0.86296   1.00
H1       0.32755    0.08265    0.86448   1.00
C6       0.29747    0.13421    0.84694   1.00
C6       0.35597    0.16098    0.83272   1.00
C3c      0.35188    0.12597    0.81505   1.00
H1       0.31447    0.08291    0.81280   1.00
C3d      0.41370    0.22256    0.83756   1.00
H1       0.41793    0.24770    0.84917   1.00
C3       0.40624    0.15411    0.80166   1.00
H1       0.40413    0.13023    0.78993   1.00
C3       0.46731    0.24919    0.82260   1.00
H1       0.50628    0.29082    0.82511   1.00
C2       0.46307    0.21603    0.80523   1.00
C2       0.91658    0.10433    0.87361   1.00
C3       0.87716    0.06934    0.85809   1.00
H1       0.86744    0.02474    0.85607   1.00
C3       0.93166    0.17002    0.87593   1.00
H1       0.95998    0.19575    0.88652   1.00
C3a      0.85033    0.09663    0.84481   1.00
H1       0.82293    0.07226    0.83390   1.00
C3b      0.90604    0.19961    0.86296   1.00
H1       0.91735    0.24489    0.86448   1.00
C6       0.86579    0.16325    0.84694   1.00
C6       0.83902    0.19498    0.83272   1.00
C3c      0.87403    0.22590    0.81505   1.00
H1       0.91709    0.23155    0.81280   1.00
C3d      0.77744    0.19113    0.83756   1.00
H1       0.75230    0.17022    0.84917   1.00
C3       0.84589    0.25212    0.80166   1.00
H1       0.86977    0.27389    0.78993   1.00
C3       0.75081    0.21811    0.82260   1.00
H1       0.70918    0.21545    0.82511   1.00
C2       0.78397    0.24703    0.80523   1.00
C2       0.14558    0.56233    0.29305   1.00
C3       0.14115    0.59732    0.30857   1.00
H1       0.17603    0.64192    0.31059   1.00
C3       0.09497    0.49664    0.29073   1.00
H1       0.09756    0.47091    0.28014   1.00
C3a      0.08703    0.57003    0.32185   1.00
H1       0.08399    0.59440    0.33276   1.00
C3b      0.03976    0.46705    0.30370   1.00
H1       0.00579    0.42177    0.30218   1.00
C6       0.03587    0.50341    0.31972   1.00
C6       0.97737    0.47168    0.33394   1.00
C3c      0.98146    0.44076    0.35161   1.00
H1       1.01887    0.43511    0.35386   1.00
C3d      0.91964    0.47553    0.32910   1.00
H1       0.91541    0.49644    0.31749   1.00
C3       0.92710    0.41454    0.36500   1.00
H1       0.92921    0.39277    0.37673   1.00
C3       0.86603    0.44855    0.34406   1.00
H1       0.82706    0.45121    0.34155   1.00
C2       0.87027    0.41963    0.36143   1.00
C2       0.41676    0.85442    0.29305   1.00
C3       0.45618    0.85885    0.30857   1.00
H1       0.46590    0.82397    0.31059   1.00
C3       0.40168    0.90503    0.29073   1.00
H1       0.37336    0.90244    0.28014   1.00
C3a      0.48301    0.91297    0.32185   1.00
H1       0.51041    0.91601    0.33276   1.00
C3b      0.42730    0.96024    0.30370   1.00
H1       0.41599    0.99421    0.30218   1.00
C6       0.46755    0.96413    0.31972   1.00
C6       0.49432    0.02263    0.33394   1.00
C3c      0.45931    0.01854    0.35161   1.00
H1       0.41625    -0.01887   0.35386   1.00
C3d      0.55590    0.08036    0.32910   1.00
H1       0.58104    0.08459    0.31749   1.00
C3       0.48745    0.07290    0.36500   1.00
H1       0.46357    0.07079    0.37673   1.00
C3       0.58253    0.13397    0.34406   1.00
H1       0.62416    0.17294    0.34155   1.00
C2       0.54937    0.12973    0.36143   1.00
C2       0.43767    0.58324    0.29305   1.00
C3       0.40268    0.54382    0.30857   1.00
H1       0.35808    0.53410    0.31059   1.00
C3       0.50336    0.59832    0.29073   1.00
H1       0.52909    0.62664    0.28014   1.00
C3a      0.42997    0.51699    0.32185   1.00
H1       0.40560    0.48959    0.33276   1.00
C3b      0.53295    0.57270    0.30370   1.00
H1       0.57823    0.58401    0.30218   1.00
C6       0.49659    0.53245    0.31972   1.00
C6       0.52832    0.50568    0.33394   1.00
C3c      0.55924    0.54069    0.35161   1.00
H1       0.56489    0.58375    0.35386   1.00
C3d      0.52447    0.44410    0.32910   1.00
H1       0.50356    0.41896    0.31749   1.00
C3       0.58546    0.51255    0.36500   1.00
H1       0.60723    0.53643    0.37673   1.00
C3       0.55145    0.41747    0.34406   1.00
H1       0.54879    0.37584    0.34155   1.00
C2       0.58037    0.45063    0.36143   1.00
C2       0.10433    0.18776    0.12639   1.00
C3       0.06934    0.19219    0.14191   1.00
H1       0.02474    0.15731    0.14393   1.00
C3       0.17002    0.23837    0.12407   1.00
H1       0.19575    0.23578    0.11348   1.00
C3a      0.09663    0.24631    0.15519   1.00
H1       0.07226    0.24935    0.16610   1.00
C3b      0.19961    0.29358    0.13704   1.00
H1       0.24489    0.32755    0.13552   1.00
C6       0.16325    0.29747    0.15306   1.00
C6       0.19498    0.35597    0.16728   1.00
C3c      0.22590    0.35188    0.18495   1.00
H1       0.23155    0.31447    0.18720   1.00
C3d      0.19113    0.41370    0.16244   1.00
H1       0.17022    0.41793    0.15083   1.00
C3       0.25212    0.40624    0.19834   1.00
H1       0.27389    0.40413    0.21007   1.00
C3       0.21811    0.46731    0.17740   1.00
H1       0.21545    0.50628    0.17489   1.00
C2       0.24703    0.46307    0.19477   1.00
C2       0.81224    0.91658    0.12639   1.00
C3       0.80781    0.87716    0.14191   1.00
H1       0.84269    0.86744    0.14393   1.00
C3       0.76163    0.93166    0.12407   1.00
H1       0.76422    0.95998    0.11348   1.00
C3a      0.75369    0.85033    0.15519   1.00
H1       0.75065    0.82293    0.16610   1.00
C3b      0.70642    0.90604    0.13704   1.00
H1       0.67245    0.91735    0.13552   1.00
C6       0.70253    0.86579    0.15306   1.00
C6       0.64403    0.83902    0.16728   1.00
C3c      0.64812    0.87403    0.18495   1.00
H1       0.68553    0.91709    0.18720   1.00
C3d      0.58630    0.77744    0.16244   1.00
H1       0.58207    0.75230    0.15083   1.00
C3       0.59376    0.84589    0.19834   1.00
H1       0.59587    0.86977    0.21007   1.00
C3       0.53269    0.75081    0.17740   1.00
H1       0.49372    0.70918    0.17489   1.00
C2       0.53693    0.78397    0.19477   1.00
C2       0.08342    0.89567    0.12639   1.00
C3       0.12284    0.93066    0.14191   1.00
H1       0.13256    0.97526    0.14393   1.00
C3       0.06834    0.82998    0.12407   1.00
H1       0.04002    0.80425    0.11348   1.00
C3a      0.14967    0.90337    0.15519   1.00
H1       0.17707    0.92774    0.16610   1.00
C3b      0.09396    0.80039    0.13704   1.00
H1       0.08265    0.75511    0.13552   1.00
C6       0.13421    0.83675    0.15306   1.00
C6       0.16098    0.80502    0.16728   1.00
C3c      0.12597    0.77410    0.18495   1.00
H1       0.08291    0.76845    0.18720   1.00
C3d      0.22256    0.80887    0.16244   1.00
H1       0.24770    0.82978    0.15083   1.00
C3       0.15411    0.74788    0.19834   1.00
H1       0.13023    0.72611    0.21007   1.00
C3       0.24919    0.78189    0.17740   1.00
H1       0.29082    0.78455    0.17489   1.00
C2       0.21603    0.75297    0.19477   1.00
C2       0.85442    0.43767    0.70695   1.00
C3       0.85885    0.40268    0.69143   1.00
H1       0.82397    0.35808    0.68941   1.00
C3       0.90503    0.50336    0.70927   1.00
H1       0.90244    0.52909    0.71986   1.00
C3a      0.91297    0.42997    0.67815   1.00
H1       0.91601    0.40560    0.66724   1.00
C3b      0.96024    0.53295    0.69630   1.00
H1       0.99421    0.57823    0.69782   1.00
C6       0.96413    0.49659    0.68028   1.00
C6       0.02263    0.52832    0.66606   1.00
C3c      0.01854    0.55924    0.64839   1.00
H1       -0.01887   0.56489    0.64614   1.00
C3d      0.08036    0.52447    0.67090   1.00
H1       0.08459    0.50356    0.68251   1.00
C3       0.07290    0.58546    0.63500   1.00
H1       0.07079    0.60723    0.62327   1.00
C3       0.13397    0.55145    0.65594   1.00
H1       0.17294    0.54879    0.65845   1.00
C2       0.12973    0.58037    0.63857   1.00
C2       0.58324    0.14558    0.70695   1.00
C3       0.54382    0.14115    0.69143   1.00
H1       0.53410    0.17603    0.68941   1.00
C3       0.59832    0.09497    0.70927   1.00
H1       0.62664    0.09756    0.71986   1.00
C3a      0.51699    0.08703    0.67815   1.00
H1       0.48959    0.08399    0.66724   1.00
C3b      0.57270    0.03976    0.69630   1.00
H1       0.58401    0.00579    0.69782   1.00
C6       0.53245    0.03587    0.68028   1.00
C6       0.50568    0.97737    0.66606   1.00
C3c      0.54069    0.98146    0.64839   1.00
H1       0.58375    1.01887    0.64614   1.00
C3d      0.44410    0.91964    0.67090   1.00
H1       0.41896    0.91541    0.68251   1.00
C3       0.51255    0.92710    0.63500   1.00
H1       0.53643    0.92921    0.62327   1.00
C3       0.41747    0.86603    0.65594   1.00
H1       0.37584    0.82706    0.65845   1.00
C2       0.45063    0.87027    0.63857   1.00
C2       0.56233    0.41676    0.70695   1.00
C3       0.59732    0.45618    0.69143   1.00
H1       0.64192    0.46590    0.68941   1.00
C3       0.49664    0.40168    0.70927   1.00
H1       0.47091    0.37336    0.71986   1.00
C3a      0.57003    0.48301    0.67815   1.00
H1       0.59440    0.51041    0.66724   1.00
C3b      0.46705    0.42730    0.69630   1.00
H1       0.42177    0.41599    0.69782   1.00
C6       0.50341    0.46755    0.68028   1.00
C6       0.47168    0.49432    0.66606   1.00
C3c      0.44076    0.45931    0.64839   1.00
H1       0.43511    0.41625    0.64614   1.00
C3d      0.47553    0.55590    0.67090   1.00
H1       0.49644    0.58104    0.68251   1.00
C3       0.41454    0.48745    0.63500   1.00
H1       0.39277    0.46357    0.62327   1.00
C3       0.44855    0.58253    0.65594   1.00
H1       0.45121    0.62416    0.65845   1.00
C2       0.41963    0.54937    0.63857   1.00
C2       0.56233    0.14558    0.20695   1.00
C3       0.59732    0.14115    0.19143   1.00
H1       0.64192    0.17603    0.18941   1.00
C3       0.49664    0.09497    0.20927   1.00
H1       0.47091    0.09756    0.21986   1.00
C3a      0.57003    0.08703    0.17815   1.00
H1       0.59440    0.08399    0.16724   1.00
C3b      0.46705    0.03976    0.19630   1.00
H1       0.42177    0.00579    0.19782   1.00
C6       0.50341    0.03587    0.18028   1.00
C6       0.47168    0.97737    0.16606   1.00
C3c      0.44076    0.98146    0.14839   1.00
H1       0.43511    1.01887    0.14614   1.00
C3d      0.47553    0.91964    0.17090   1.00
H1       0.49644    0.91541    0.18251   1.00
C3       0.41454    0.92710    0.13500   1.00
H1       0.39277    0.92921    0.12327   1.00
C3       0.44855    0.86603    0.15594   1.00
H1       0.45121    0.82706    0.15845   1.00
C2       0.41963    0.87027    0.13857   1.00
C2       0.85442    0.41676    0.20695   1.00
C3       0.85885    0.45618    0.19143   1.00
H1       0.82397    0.46590    0.18941   1.00
C3       0.90503    0.40168    0.20927   1.00
H1       0.90244    0.37336    0.21986   1.00
C3a      0.91297    0.48301    0.17815   1.00
H1       0.91601    0.51041    0.16724   1.00
C3b      0.96024    0.42730    0.19630   1.00
H1       0.99421    0.41599    0.19782   1.00
C6       0.96413    0.46755    0.18028   1.00
C6       0.02263    0.49432    0.16606   1.00
C3c      0.01854    0.45931    0.14839   1.00
H1       -0.01887   0.41625    0.14614   1.00
C3d      0.08036    0.55590    0.17090   1.00
H1       0.08459    0.58104    0.18251   1.00
C3       0.07290    0.48745    0.13500   1.00
H1       0.07079    0.46357    0.12327   1.00
C3       0.13397    0.58253    0.15594   1.00
H1       0.17294    0.62416    0.15845   1.00
C2       0.12973    0.54937    0.13857   1.00
C2       0.58324    0.43767    0.20695   1.00
C3       0.54382    0.40268    0.19143   1.00
H1       0.53410    0.35808    0.18941   1.00
C3       0.59832    0.50336    0.20927   1.00
H1       0.62664    0.52909    0.21986   1.00
C3a      0.51699    0.42997    0.17815   1.00
H1       0.48959    0.40560    0.16724   1.00
C3b      0.57270    0.53295    0.19630   1.00
H1       0.58401    0.57823    0.19782   1.00
C6       0.53245    0.49659    0.18028   1.00
C6       0.50568    0.52832    0.16606   1.00
C3c      0.54069    0.55924    0.14839   1.00
H1       0.58375    0.56489    0.14614   1.00
C3d      0.44410    0.52447    0.17090   1.00
H1       0.41896    0.50356    0.18251   1.00
C3       0.51255    0.58546    0.13500   1.00
H1       0.53643    0.60723    0.12327   1.00
C3       0.41747    0.55145    0.15594   1.00
H1       0.37584    0.54879    0.15845   1.00
C2       0.45063    0.58037    0.13857   1.00
C2       0.81224    0.89567    0.62639   1.00
C3       0.80781    0.93066    0.64191   1.00
H1       0.84269    0.97526    0.64393   1.00
C3       0.76163    0.82998    0.62407   1.00
H1       0.76422    0.80425    0.61348   1.00
C3a      0.75369    0.90337    0.65519   1.00
H1       0.75065    0.92774    0.66610   1.00
C3b      0.70642    0.80039    0.63704   1.00
H1       0.67245    0.75511    0.63552   1.00
C6       0.70253    0.83675    0.65306   1.00
C6       0.64403    0.80502    0.66728   1.00
C3c      0.64812    0.77410    0.68495   1.00
H1       0.68553    0.76845    0.68720   1.00
C3d      0.58630    0.80887    0.66244   1.00
H1       0.58207    0.82978    0.65083   1.00
C3       0.59376    0.74788    0.69834   1.00
H1       0.59587    0.72611    0.71007   1.00
C3       0.53269    0.78189    0.67740   1.00
H1       0.49372    0.78455    0.67489   1.00
C2       0.53693    0.75297    0.69477   1.00
C2       0.08342    0.18776    0.62639   1.00
C3       0.12284    0.19219    0.64191   1.00
H1       0.13256    0.15731    0.64393   1.00
C3       0.06834    0.23837    0.62407   1.00
H1       0.04002    0.23578    0.61348   1.00
C3a      0.14967    0.24631    0.65519   1.00
H1       0.17707    0.24935    0.66610   1.00
C3b      0.09396    0.29358    0.63704   1.00
H1       0.08265    0.32755    0.63552   1.00
C6       0.13421    0.29747    0.65306   1.00
C6       0.16098    0.35597    0.66728   1.00
C3c      0.12597    0.35188    0.68495   1.00
H1       0.08291    0.31447    0.68720   1.00
C3d      0.22256    0.41370    0.66244   1.00
H1       0.24770    0.41793    0.65083   1.00
C3       0.15411    0.40624    0.69834   1.00
H1       0.13023    0.40413    0.71007   1.00
C3       0.24919    0.46731    0.67740   1.00
H1       0.29082    0.50628    0.67489   1.00
C2       0.21603    0.46307    0.69477   1.00
C2       0.10433    0.91658    0.62639   1.00
C3       0.06934    0.87716    0.64191   1.00
H1       0.02474    0.86744    0.64393   1.00
C3       0.17002    0.93166    0.62407   1.00
H1       0.19575    0.95998    0.61348   1.00
C3a      0.09663    0.85033    0.65519   1.00
H1       0.07226    0.82293    0.66610   1.00
C3b      0.19961    0.90604    0.63704   1.00
H1       0.24489    0.91735    0.63552   1.00
C6       0.16325    0.86579    0.65306   1.00
C6       0.19498    0.83902    0.66728   1.00
C3c      0.22590    0.87403    0.68495   1.00
H1       0.23155    0.91709    0.68720   1.00
C3d      0.19113    0.77744    0.66244   1.00
H1       0.17022    0.75230    0.65083   1.00
C3       0.25212    0.84589    0.69834   1.00
H1       0.27389    0.86977    0.71007   1.00
C3       0.21811    0.75081    0.67740   1.00
H1       0.21545    0.70918    0.67489   1.00
C2       0.24703    0.78397    0.69477   1.00
