data_IRMOF10_interpen_symm_ligand11cp_label_f_1.

_audit_creation_method             'generated by an auxiliary program of Tobunporous'

_symmetry_space_group_name_H-M     'P 1'
_symmetry_Int_Tables_number        1
_symmetry_cell_setting             triclinic

_cell_length_a                    22.6523
_cell_length_b                    22.6523
_cell_length_c                    65.9502
_cell_angle_alpha                 90.0000
_cell_angle_beta                  90.0000
_cell_angle_gamma                 120.0000

loop_
_atom_site_label
_atom_site_fract_x
_atom_site_fract_y
_atom_site_fract_z
_atom_site_occupancy
O1       0.00000    0.00000    0.57470   1.00
Zn1      0.00000    0.00000    0.54560   1.00
Zn1      0.94843    0.04287    0.58357   1.00
Zn1      0.09443    0.05157    0.58357   1.00
Zn1      0.95713    0.90557    0.58357   1.00
O2       0.93860    0.02610    0.53560   1.00
O2       0.08750    0.06140    0.53560   1.00
O2       0.97390    0.91250    0.53560   1.00
O2       0.91300    0.07160    0.56150   1.00
O2       0.00463    0.12027    0.60077   1.00
O2       0.87413    0.98077    0.60037   1.00
O2       0.15860    0.08700    0.56150   1.00
O2       0.10663    0.12587    0.60037   1.00
O2       0.11563    0.99537    0.60077   1.00
O2       0.92840    0.84140    0.56150   1.00
O2       0.87973    0.88437    0.60077   1.00
O2       0.01923    0.89337    0.60037   1.00
C1       0.91390    0.06020    0.54330   1.00
C1       0.14630    0.08610    0.54330   1.00
C1       0.93980    0.85370    0.54330   1.00
C1       0.06663    0.14397    0.60637   1.00
C1       0.85603    0.92267    0.60637   1.00
C1       0.07733    0.93337    0.60637   1.00
O1       0.00000    0.00000    0.92530   1.00
Zn1      0.00000    0.00000    0.95440   1.00
Zn1      0.04287    0.94843    0.91643   1.00
Zn1      0.05157    0.09443    0.91643   1.00
Zn1      0.90557    0.95713    0.91643   1.00
O2       0.02610    0.93860    0.96440   1.00
O2       0.06140    0.08750    0.96440   1.00
O2       0.91250    0.97390    0.96440   1.00
O2       0.07160    0.91300    0.93850   1.00
O2       0.12027    0.00463    0.89923   1.00
O2       0.98077    0.87413    0.89963   1.00
O2       0.08700    0.15860    0.93850   1.00
O2       0.12587    0.10663    0.89963   1.00
O2       0.99537    0.11563    0.89923   1.00
O2       0.84140    0.92840    0.93850   1.00
O2       0.88437    0.87973    0.89923   1.00
O2       0.89337    0.01923    0.89963   1.00
C1       0.06020    0.91390    0.95670   1.00
C1       0.08610    0.14630    0.95670   1.00
C1       0.85370    0.93980    0.95670   1.00
C1       0.14397    0.06663    0.89363   1.00
C1       0.92267    0.85603    0.89363   1.00
C1       0.93337    0.07733    0.89363   1.00
O1       0.00000    0.00000    0.42530   1.00
Zn1      0.00000    0.00000    0.45440   1.00
Zn1      0.05157    0.95713    0.41643   1.00
Zn1      0.90557    0.94843    0.41643   1.00
Zn1      0.04287    0.09443    0.41643   1.00
O2       0.06140    0.97390    0.46440   1.00
O2       0.91250    0.93860    0.46440   1.00
O2       0.02610    0.08750    0.46440   1.00
O2       0.08700    0.92840    0.43850   1.00
O2       0.99537    0.87973    0.39923   1.00
O2       0.12587    0.01923    0.39963   1.00
O2       0.84140    0.91300    0.43850   1.00
O2       0.89337    0.87413    0.39963   1.00
O2       0.88437    0.00463    0.39923   1.00
O2       0.07160    0.15860    0.43850   1.00
O2       0.12027    0.11563    0.39923   1.00
O2       0.98077    0.10663    0.39963   1.00
C1       0.08610    0.93980    0.45670   1.00
C1       0.85370    0.91390    0.45670   1.00
C1       0.06020    0.14630    0.45670   1.00
C1       0.93337    0.85603    0.39363   1.00
C1       0.14397    0.07733    0.39363   1.00
C1       0.92267    0.06663    0.39363   1.00
O1       0.00000    0.00000    0.07470   1.00
Zn1      0.00000    0.00000    0.04560   1.00
Zn1      0.95713    0.05157    0.08357   1.00
Zn1      0.94843    0.90557    0.08357   1.00
Zn1      0.09443    0.04287    0.08357   1.00
O2       0.97390    0.06140    0.03560   1.00
O2       0.93860    0.91250    0.03560   1.00
O2       0.08750    0.02610    0.03560   1.00
O2       0.92840    0.08700    0.06150   1.00
O2       0.87973    0.99537    0.10077   1.00
O2       0.01923    0.12587    0.10037   1.00
O2       0.91300    0.84140    0.06150   1.00
O2       0.87413    0.89337    0.10037   1.00
O2       0.00463    0.88437    0.10077   1.00
O2       0.15860    0.07160    0.06150   1.00
O2       0.11563    0.12027    0.10077   1.00
O2       0.10663    0.98077    0.10037   1.00
C1       0.93980    0.08610    0.04330   1.00
C1       0.91390    0.85370    0.04330   1.00
C1       0.14630    0.06020    0.04330   1.00
C1       0.85603    0.93337    0.10637   1.00
C1       0.07733    0.14397    0.10637   1.00
C1       0.06663    0.92267    0.10637   1.00
O1       0.66667    0.33333    0.90803   1.00
Zn1      0.66667    0.33333    0.87893   1.00
Zn1      0.61510    0.37620    0.91690   1.00
Zn1      0.76110    0.38490    0.91690   1.00
Zn1      0.62380    0.23890    0.91690   1.00
O2       0.60527    0.35943    0.86893   1.00
O2       0.75417    0.39473    0.86893   1.00
O2       0.64057    0.24583    0.86893   1.00
O2       0.57967    0.40493    0.89483   1.00
O2       0.67130    0.45360    0.93410   1.00
O2       0.54080    0.31410    0.93370   1.00
O2       0.82527    0.42033    0.89483   1.00
O2       0.77330    0.45920    0.93370   1.00
O2       0.78230    0.32870    0.93410   1.00
O2       0.59507    0.17473    0.89483   1.00
O2       0.54640    0.21770    0.93410   1.00
O2       0.68590    0.22670    0.93370   1.00
C1       0.58057    0.39353    0.87663   1.00
C1       0.81297    0.41943    0.87663   1.00
C1       0.60647    0.18703    0.87663   1.00
C1       0.73330    0.47730    0.93970   1.00
C1       0.52270    0.25600    0.93970   1.00
C1       0.74400    0.26670    0.93970   1.00
O1       0.66667    0.33333    0.25863   1.00
Zn1      0.66667    0.33333    0.28773   1.00
Zn1      0.70953    0.28177    0.24977   1.00
Zn1      0.71823    0.42777    0.24977   1.00
Zn1      0.57223    0.29047    0.24977   1.00
O2       0.69277    0.27193    0.29773   1.00
O2       0.72807    0.42083    0.29773   1.00
O2       0.57917    0.30723    0.29773   1.00
O2       0.73827    0.24633    0.27183   1.00
O2       0.78693    0.33797    0.23257   1.00
O2       0.64743    0.20747    0.23297   1.00
O2       0.75367    0.49193    0.27183   1.00
O2       0.79253    0.43997    0.23297   1.00
O2       0.66203    0.44897    0.23257   1.00
O2       0.50807    0.26173    0.27183   1.00
O2       0.55103    0.21307    0.23257   1.00
O2       0.56003    0.35257    0.23297   1.00
C1       0.72687    0.24723    0.29003   1.00
C1       0.75277    0.47963    0.29003   1.00
C1       0.52037    0.27313    0.29003   1.00
C1       0.81063    0.39997    0.22697   1.00
C1       0.58933    0.18937    0.22697   1.00
C1       0.60003    0.41067    0.22697   1.00
O1       0.66667    0.33333    0.75863   1.00
Zn1      0.66667    0.33333    0.78773   1.00
Zn1      0.71823    0.29047    0.74977   1.00
Zn1      0.57223    0.28177    0.74977   1.00
Zn1      0.70953    0.42777    0.74977   1.00
O2       0.72807    0.30723    0.79773   1.00
O2       0.57917    0.27193    0.79773   1.00
O2       0.69277    0.42083    0.79773   1.00
O2       0.75367    0.26173    0.77183   1.00
O2       0.66203    0.21307    0.73257   1.00
O2       0.79253    0.35257    0.73297   1.00
O2       0.50807    0.24633    0.77183   1.00
O2       0.56003    0.20747    0.73297   1.00
O2       0.55103    0.33797    0.73257   1.00
O2       0.73827    0.49193    0.77183   1.00
O2       0.78693    0.44897    0.73257   1.00
O2       0.64743    0.43997    0.73297   1.00
C1       0.75277    0.27313    0.79003   1.00
C1       0.52037    0.24723    0.79003   1.00
C1       0.72687    0.47963    0.79003   1.00
C1       0.60003    0.18937    0.72697   1.00
C1       0.81063    0.41067    0.72697   1.00
C1       0.58933    0.39997    0.72697   1.00
O1       0.66667    0.33333    0.40803   1.00
Zn1      0.66667    0.33333    0.37893   1.00
Zn1      0.62380    0.38490    0.41690   1.00
Zn1      0.61510    0.23890    0.41690   1.00
Zn1      0.76110    0.37620    0.41690   1.00
O2       0.64057    0.39473    0.36893   1.00
O2       0.60527    0.24583    0.36893   1.00
O2       0.75417    0.35943    0.36893   1.00
O2       0.59507    0.42033    0.39483   1.00
O2       0.54640    0.32870    0.43410   1.00
O2       0.68590    0.45920    0.43370   1.00
O2       0.57967    0.17473    0.39483   1.00
O2       0.54080    0.22670    0.43370   1.00
O2       0.67130    0.21770    0.43410   1.00
O2       0.82527    0.40493    0.39483   1.00
O2       0.78230    0.45360    0.43410   1.00
O2       0.77330    0.31410    0.43370   1.00
C1       0.60647    0.41943    0.37663   1.00
C1       0.58057    0.18703    0.37663   1.00
C1       0.81297    0.39353    0.37663   1.00
C1       0.52270    0.26670    0.43970   1.00
C1       0.74400    0.47730    0.43970   1.00
C1       0.73330    0.25600    0.43970   1.00
O1       0.33333    0.66667    0.24137   1.00
Zn1      0.33333    0.66667    0.21227   1.00
Zn1      0.28177    0.70953    0.25023   1.00
Zn1      0.42777    0.71823    0.25023   1.00
Zn1      0.29047    0.57223    0.25023   1.00
O2       0.27193    0.69277    0.20227   1.00
O2       0.42083    0.72807    0.20227   1.00
O2       0.30723    0.57917    0.20227   1.00
O2       0.24633    0.73827    0.22817   1.00
O2       0.33797    0.78693    0.26743   1.00
O2       0.20747    0.64743    0.26703   1.00
O2       0.49193    0.75367    0.22817   1.00
O2       0.43997    0.79253    0.26703   1.00
O2       0.44897    0.66203    0.26743   1.00
O2       0.26173    0.50807    0.22817   1.00
O2       0.21307    0.55103    0.26743   1.00
O2       0.35257    0.56003    0.26703   1.00
C1       0.24723    0.72687    0.20997   1.00
C1       0.47963    0.75277    0.20997   1.00
C1       0.27313    0.52037    0.20997   1.00
C1       0.39997    0.81063    0.27303   1.00
C1       0.18937    0.58933    0.27303   1.00
C1       0.41067    0.60003    0.27303   1.00
O1       0.33333    0.66667    0.59197   1.00
Zn1      0.33333    0.66667    0.62107   1.00
Zn1      0.37620    0.61510    0.58310   1.00
Zn1      0.38490    0.76110    0.58310   1.00
Zn1      0.23890    0.62380    0.58310   1.00
O2       0.35943    0.60527    0.63107   1.00
O2       0.39473    0.75417    0.63107   1.00
O2       0.24583    0.64057    0.63107   1.00
O2       0.40493    0.57967    0.60517   1.00
O2       0.45360    0.67130    0.56590   1.00
O2       0.31410    0.54080    0.56630   1.00
O2       0.42033    0.82527    0.60517   1.00
O2       0.45920    0.77330    0.56630   1.00
O2       0.32870    0.78230    0.56590   1.00
O2       0.17473    0.59507    0.60517   1.00
O2       0.21770    0.54640    0.56590   1.00
O2       0.22670    0.68590    0.56630   1.00
C1       0.39353    0.58057    0.62337   1.00
C1       0.41943    0.81297    0.62337   1.00
C1       0.18703    0.60647    0.62337   1.00
C1       0.47730    0.73330    0.56030   1.00
C1       0.25600    0.52270    0.56030   1.00
C1       0.26670    0.74400    0.56030   1.00
O1       0.33333    0.66667    0.09197   1.00
Zn1      0.33333    0.66667    0.12107   1.00
Zn1      0.38490    0.62380    0.08310   1.00
Zn1      0.23890    0.61510    0.08310   1.00
Zn1      0.37620    0.76110    0.08310   1.00
O2       0.39473    0.64057    0.13107   1.00
O2       0.24583    0.60527    0.13107   1.00
O2       0.35943    0.75417    0.13107   1.00
O2       0.42033    0.59507    0.10517   1.00
O2       0.32870    0.54640    0.06590   1.00
O2       0.45920    0.68590    0.06630   1.00
O2       0.17473    0.57967    0.10517   1.00
O2       0.22670    0.54080    0.06630   1.00
O2       0.21770    0.67130    0.06590   1.00
O2       0.40493    0.82527    0.10517   1.00
O2       0.45360    0.78230    0.06590   1.00
O2       0.31410    0.77330    0.06630   1.00
C1       0.41943    0.60647    0.12337   1.00
C1       0.18703    0.58057    0.12337   1.00
C1       0.39353    0.81297    0.12337   1.00
C1       0.26670    0.52270    0.06030   1.00
C1       0.47730    0.74400    0.06030   1.00
C1       0.25600    0.73330    0.06030   1.00
O1       0.33333    0.66667    0.74137   1.00
Zn1      0.33333    0.66667    0.71227   1.00
Zn1      0.29047    0.71823    0.75023   1.00
Zn1      0.28177    0.57223    0.75023   1.00
Zn1      0.42777    0.70953    0.75023   1.00
O2       0.30723    0.72807    0.70227   1.00
O2       0.27193    0.57917    0.70227   1.00
O2       0.42083    0.69277    0.70227   1.00
O2       0.26173    0.75367    0.72817   1.00
O2       0.21307    0.66203    0.76743   1.00
O2       0.35257    0.79253    0.76703   1.00
O2       0.24633    0.50807    0.72817   1.00
O2       0.20747    0.56003    0.76703   1.00
O2       0.33797    0.55103    0.76743   1.00
O2       0.49193    0.73827    0.72817   1.00
O2       0.44897    0.78693    0.76743   1.00
O2       0.43997    0.64743    0.76703   1.00
C1       0.27313    0.75277    0.70997   1.00
C1       0.24723    0.52037    0.70997   1.00
C1       0.47963    0.72687    0.70997   1.00
C1       0.18937    0.60003    0.77303   1.00
C1       0.41067    0.81063    0.77303   1.00
C1       0.39997    0.58933    0.77303   1.00
C5       0.91294    0.96823    0.49498   1.00
H2       0.88232    0.96437    0.50859   1.00
H2       0.87905    0.95917    0.48175   1.00
C5       0.97635    1.04049    0.49388   1.00
H2       0.96293    1.07742    0.48720   1.00
H2       1.01663    1.03960    0.48443   1.00
O_3      0.93829    0.68403    0.46869   1.00
C4       0.85673    0.68946    0.50003   1.00
C3c      0.85527    0.75008    0.49695   1.00
H1       0.83174    0.75604    0.48343   1.00
C3d      0.88676    0.68234    0.51789   1.00
C3       0.88478    0.80411    0.51101   1.00
O2       0.87408    0.85827    0.50822   1.00
C3       0.91734    0.73654    0.53173   1.00
H1       0.94189    0.72965    0.54485   1.00
C2       0.91698    0.79848    0.52874   1.00
C5       0.98106    0.65915    0.47534   1.00
H2       0.97428    0.61481    0.46617   1.00
H2       0.97109    0.64311    0.49157   1.00
C5       1.05436    0.71653    0.47313   1.00
H2       1.06065    0.76150    0.48183   1.00
H2       1.06393    0.73168    0.45685   1.00
C5       1.10443    0.69447    0.48073   1.00
H2       1.09811    0.64929    0.47221   1.00
H2       1.09648    0.68160    0.49717   1.00
H2       1.15777    0.73655    0.47858   1.00
C5       0.83501    0.57391    0.53039   1.00
C5       0.92856    0.91005    0.49698   1.00
H2       0.78921    0.55724    0.52068   1.00
H2       0.82569    0.59088    0.54534   1.00
H2       0.93136    0.89052    0.48168   1.00
H2       0.97909    0.92859    0.50451   1.00
H2       0.99726    1.06016    0.50934   1.00
H2       0.74407    0.42916    0.52540   1.00
H2       0.75233    0.45636    0.55169   1.00
C2       0.77475    0.52650    0.45678   1.00
C3       0.73201    0.53016    0.47172   1.00
O2       0.66922    0.47408    0.47587   1.00
C3       0.84364    0.57938    0.45593   1.00
H1       0.87721    0.57899    0.44435   1.00
C3a      0.75906    0.58487    0.48563   1.00
H1       0.72670    0.58489    0.49768   1.00
C3b      0.87091    0.63254    0.47019   1.00
C4       0.82864    0.63556    0.48522   1.00
O_3      0.89410    0.62586    0.52091   1.00
C5       0.61695    0.48141    0.46669   1.00
H2       0.61698    0.52791    0.47234   1.00
C5       0.54926    0.41806    0.47226   1.00
H2       0.62280    0.48492    0.44988   1.00
H2       0.53522    0.42462    0.48795   1.00
H2       0.55830    0.37403    0.47275   1.00
C5       0.49131    0.40402    0.45731   1.00
H2       0.48662    0.45039    0.45580   1.00
H2       0.44181    0.36119    0.46277   1.00
H2       0.50072    0.38877    0.44205   1.00
C5       0.84591    0.51352    0.53373   1.00
H2       0.88392    0.52665    0.54612   1.00
H2       0.86892    0.50611    0.51971   1.00
C5       0.77886    0.44782    0.53879   1.00
H2       0.78970    0.40682    0.54319   1.00
C5       0.28336    0.27739    0.57635   1.00
H2       0.23561    0.27669    0.57204   1.00
H2       0.32534    0.33011    0.57333   1.00
C5       0.28097    0.26015    0.59916   1.00
H2       0.29525    0.30598    0.60868   1.00
H2       0.31675    0.24105    0.60237   1.00
O_3      0.42329    0.15103    0.50659   1.00
C4       0.30966    0.16750    0.49973   1.00
C3c      0.30909    0.20802    0.51577   1.00
H1       0.35050    0.25991    0.51733   1.00
C3d      0.25473    0.10033    0.49781   1.00
C3       0.25599    0.18223    0.53016   1.00
O2       0.25463    0.22723    0.54392   1.00
C3       0.20244    0.07408    0.51233   1.00
H1       0.16263    0.02153    0.51064   1.00
C2       0.20145    0.11412    0.52877   1.00
C5       0.41004    0.08460    0.50200   1.00
H2       0.44758    0.08490    0.49100   1.00
H2       0.35791    0.05293    0.49550   1.00
C5       0.41501    0.05228    0.52165   1.00
H2       0.37886    0.05372    0.53283   1.00
H2       0.46744    0.08396    0.52790   1.00
C5       0.39885    -0.02127   0.51814   1.00
H2       0.43446    -0.02313   0.50688   1.00
H2       0.34569    -0.05350   0.51256   1.00
H2       0.40421    -0.04353   0.53258   1.00
C5       0.22684    0.06443    0.46508   1.00
C5       0.28859    0.22721    0.56192   1.00
H2       0.25723    0.11709    0.45898   1.00
H2       0.17320    0.05268    0.46735   1.00
H2       0.34315    0.24431    0.55862   1.00
H2       0.26560    0.17551    0.56903   1.00
H2       0.22835    0.22083    0.60392   1.00
H2       0.25933    0.07976    0.42235   1.00
H2       0.16806    0.03479    0.42716   1.00
C2       0.47339    0.24045    0.45685   1.00
C3       0.41865    0.25247    0.45362   1.00
O2       0.40814    0.27192    0.43475   1.00
C3       0.47415    0.20708    0.47491   1.00
H1       0.51620    0.19868    0.47807   1.00
C3a      0.36566    0.22963    0.46806   1.00
H1       0.32222    0.23576    0.46482   1.00
C3b      0.42031    0.18249    0.48892   1.00
C4       0.36541    0.19355    0.48554   1.00
O_3      0.25540    0.05675    0.48322   1.00
C5       0.43186    0.34259    0.43445   1.00
H2       0.40492    0.35672    0.44598   1.00
C5       0.41738    0.35979    0.41324   1.00
H2       0.48772    0.37243    0.43750   1.00
H2       0.36265    0.34528    0.41243   1.00
H2       0.42445    0.32643    0.40226   1.00
C5       0.46346    0.43555    0.40764   1.00
H2       0.45983    0.46817    0.41960   1.00
H2       0.44764    0.44727    0.39288   1.00
H2       0.51783    0.44877    0.40585   1.00
C5       0.22748    0.01476    0.44964   1.00
H2       0.18801    -0.03791   0.45407   1.00
H2       0.27777    0.01718    0.45060   1.00
C5       0.21520    0.03110    0.42791   1.00
H2       0.20891    -0.01005   0.41741   1.00
C5       0.75171    0.05208    0.58252   1.00
H2       0.74214    -0.00035   0.57975   1.00
H2       0.70124    0.04884    0.58132   1.00
C5       0.78161    0.07537    0.60406   1.00
H2       0.74041    0.05444    0.61568   1.00
H2       0.80959    0.13204    0.60498   1.00
O_3      0.87254    0.28132    0.50196   1.00
C4       0.83233    0.14206    0.49975   1.00
C3c      0.79771    0.11298    0.51795   1.00
H1       0.75044    0.11199    0.52123   1.00
C3d      0.89334    0.14196    0.49565   1.00
C3       0.82372    0.08573    0.53229   1.00
O2       0.78300    0.05079    0.54854   1.00
C3       0.92005    0.11605    0.51006   1.00
H1       0.96821    0.11927    0.50657   1.00
C2       0.88606    0.08713    0.52865   1.00
C5       0.93838    0.32391    0.49395   1.00
H2       0.93858    0.35868    0.48194   1.00
H2       0.95978    0.29322    0.48733   1.00
C5       0.98385    0.36696    0.51125   1.00
H2       0.98214    0.33222    0.52350   1.00
H2       0.96236    0.39784    0.51762   1.00
C5       1.05732    0.41324    0.50398   1.00
H2       1.05935    0.44774    0.49166   1.00
H2       1.07963    0.38238    0.49827   1.00
H2       1.08945    0.44539    0.51673   1.00
C5       0.90949    0.12878    0.46217   1.00
C5       0.79821    0.09544    0.56520   1.00
H2       0.85552    0.11179    0.45829   1.00
H2       0.91413    0.08290    0.46541   1.00
H2       0.78751    0.13709    0.56123   1.00
H2       0.85294    0.11997    0.56989   1.00
H2       0.81698    0.05617    0.60810   1.00
H2       0.87617    0.13013    0.41994   1.00
H2       0.91106    0.07463    0.42492   1.00
C2       0.75988    0.23258    0.45662   1.00
C3       0.73622    0.16191    0.45588   1.00
O2       0.70388    0.12470    0.43875   1.00
C3       0.80494    0.27134    0.47243   1.00
H1       0.82259    0.32522    0.47373   1.00
C3a      0.75915    0.13219    0.47043   1.00
H1       0.74363    0.07881    0.46897   1.00
C3b      0.82935    0.24206    0.48648   1.00
C4       0.80660    0.17201    0.48554   1.00
O_3      0.93200    0.17454    0.47869   1.00
C5       0.63273    0.08728    0.44186   1.00
H2       0.61928    0.05131    0.45490   1.00
C5       0.60086    0.04673    0.42243   1.00
H2       0.61208    0.12198    0.44486   1.00
H2       0.60662    0.00070    0.42251   1.00
H2       0.63166    0.07876    0.40943   1.00
C5       0.52528    0.02626    0.41991   1.00
H2       0.49637    -0.00098   0.43372   1.00
H2       0.50242    -0.00788   0.40656   1.00
H2       0.51946    0.07184    0.41721   1.00
C5       0.95416    0.16633    0.44402   1.00
H2       1.00573    0.17285    0.44654   1.00
H2       0.96056    0.21840    0.44352   1.00
C5       0.92330    0.12865    0.42396   1.00
H2       0.96036    0.15352    0.41140   1.00
C5       0.97041    0.92017    0.00583   1.00
H2       0.96740    0.88886    -0.00752   1.00
H2       0.96210    0.88751    0.01932   1.00
C5       1.04190    0.98474    0.00669   1.00
H2       1.07967    0.97303    0.01366   1.00
H2       1.03987    1.02513    0.01577   1.00
O_3      0.68162    0.93932    0.03053   1.00
C4       0.68947    0.85671    -0.00003   1.00
C3c      0.75093    0.85717    0.00335   1.00
H1       0.75756    0.83516    0.01711   1.00
C3d      0.68151    0.88478    -0.01819   1.00
C3       0.80493    0.88669    -0.01072   1.00
O2       0.86010    0.87784    -0.00757   1.00
C3       0.73565    0.91537    -0.03204   1.00
H1       0.72806    0.93839    -0.04542   1.00
C2       0.79842    0.91694    -0.02876   1.00
C5       0.65526    0.98029    0.02337   1.00
H2       0.61048    0.97308    0.03239   1.00
H2       0.63935    0.96880    0.00717   1.00
C5       0.71140    1.05430    0.02519   1.00
H2       0.75683    1.06107    0.01665   1.00
H2       0.72642    1.06537    0.04145   1.00
C5       0.68772    1.10247    0.01703   1.00
H2       0.64207    1.09564    0.02539   1.00
H2       0.67495    1.09304    0.00061   1.00
H2       0.72889    1.15637    0.01889   1.00
C5       0.57310    0.82985    -0.03072   1.00
C5       0.91104    0.93381    0.00342   1.00
H2       0.55741    0.78497    -0.02068   1.00
H2       0.59060    0.82000    -0.04551   1.00
H2       0.89111    0.93719    0.01859   1.00
H2       0.92848    0.98356    -0.00449   1.00
H2       1.06133    1.00473    -0.00886   1.00
H2       0.42887    0.73661    -0.02559   1.00
H2       0.45632    0.74351    -0.05182   1.00
C2       0.52639    0.77468    0.04318   1.00
C3       0.53133    0.73153    0.02866   1.00
O2       0.47623    0.66778    0.02482   1.00
C3       0.57810    0.84410    0.04365   1.00
H1       0.57674    0.87806    0.05492   1.00
C3a      0.58609    0.75865    0.01477   1.00
H1       0.58704    0.72584    0.00301   1.00
C3b      0.63129    0.87138    0.02941   1.00
C4       0.63556    0.82866    0.01478   1.00
O_3      0.62409    0.89023    -0.02154   1.00
C5       0.48504    0.61715    0.03450   1.00
H2       0.53219    0.61803    0.02908   1.00
C5       0.42272    0.54827    0.02925   1.00
H2       0.48837    0.62428    0.05128   1.00
H2       0.42982    0.53343    0.01373   1.00
H2       0.37786    0.55593    0.02847   1.00
C5       0.41002    0.49188    0.04466   1.00
H2       0.45712    0.48865    0.04643   1.00
H2       0.36798    0.44150    0.03945   1.00
H2       0.39425    0.50189    0.05976   1.00
C5       0.51161    0.83868    -0.03445   1.00
H2       0.52393    0.87558    -0.04712   1.00
H2       0.50342    0.86221    -0.02068   1.00
C5       0.44689    0.77040    -0.03921   1.00
H2       0.40506    0.77963    -0.04390   1.00
C5       0.27727    0.28345    -0.07638   1.00
H2       0.27663    0.23573    -0.07208   1.00
H2       0.32999    0.32546    -0.07337   1.00
C5       0.25998    0.28105    -0.09919   1.00
H2       0.30579    0.29536    -0.10872   1.00
H2       0.24083    0.31680    -0.10239   1.00
O_3      0.15091    0.42323    -0.00657   1.00
C4       0.16750    0.30966    0.00027   1.00
C3c      0.20800    0.30912    -0.01578   1.00
H1       0.25987    0.35056    -0.01735   1.00
C3d      0.10036    0.25470    0.00220   1.00
C3       0.18221    0.25602    -0.03017   1.00
O2       0.22719    0.25470    -0.04395   1.00
C3       0.07410    0.20241    -0.01232   1.00
H1       0.02157    0.16257    -0.01062   1.00
C2       0.11412    0.20145    -0.02877   1.00
C5       0.08448    0.40993    -0.00196   1.00
H2       0.08477    0.44746    0.00904   1.00
H2       0.05285    0.35779    0.00454   1.00
C5       0.05210    0.41487    -0.02160   1.00
H2       0.05354    0.37874    -0.03279   1.00
H2       0.08373    0.46730    -0.02786   1.00
C5       -0.02146   0.39866    -0.01807   1.00
H2       -0.02333   0.43425    -0.00681   1.00
H2       -0.05365   0.34550    -0.01249   1.00
H2       -0.04377   0.40399    -0.03251   1.00
C5       0.06454    0.22679    0.03494   1.00
C5       0.22711    0.28864    -0.06194   1.00
H2       0.11721    0.25721    0.04103   1.00
H2       0.05282    0.17317    0.03266   1.00
H2       0.24418    0.34319    -0.05864   1.00
H2       0.17539    0.26562    -0.06904   1.00
H2       0.22067    0.22842    -0.10395   1.00
H2       0.07995    0.25929    0.07767   1.00
H2       0.03502    0.16802    0.07286   1.00
C2       0.24045    0.47338    0.04315   1.00
C3       0.25253    0.41868    0.04637   1.00
O2       0.27203    0.40819    0.06523   1.00
C3       0.20702    0.47411    0.02510   1.00
H1       0.19858    0.51614    0.02194   1.00
C3a      0.22969    0.36569    0.03193   1.00
H1       0.23586    0.32227    0.03516   1.00
C3b      0.18243    0.42028    0.01109   1.00
C4       0.19354    0.36541    0.01446   1.00
O_3      0.05679    0.25533    0.01681   1.00
C5       0.34272    0.43196    0.06552   1.00
H2       0.35685    0.40505    0.05398   1.00
C5       0.35999    0.41751    0.08673   1.00
H2       0.37251    0.48782    0.06246   1.00
H2       0.34552    0.36278    0.08753   1.00
H2       0.32663    0.42455    0.09771   1.00
C5       0.43576    0.46363    0.09231   1.00
H2       0.46837    0.46002    0.08034   1.00
H2       0.44753    0.44782    0.10706   1.00
H2       0.44894    0.51798    0.09410   1.00
C5       0.01488    0.22739    0.05039   1.00
H2       -0.03779   0.18789    0.04597   1.00
H2       0.01726    0.27766    0.04944   1.00
C5       0.03130    0.21514    0.07212   1.00
H2       -0.00984   0.20882    0.08262   1.00
C5       0.05208    0.75171    -0.08252   1.00
H2       -0.00035   0.74214    -0.07975   1.00
H2       0.04884    0.70124    -0.08132   1.00
C5       0.07537    0.78161    -0.10406   1.00
H2       0.05444    0.74041    -0.11568   1.00
H2       0.13204    0.80959    -0.10498   1.00
O_3      0.28132    0.87254    -0.00196   1.00
C4       0.14206    0.83233    0.00025   1.00
C3c      0.11298    0.79771    -0.01795   1.00
H1       0.11199    0.75044    -0.02123   1.00
C3d      0.14196    0.89334    0.00435   1.00
C3       0.08573    0.82372    -0.03229   1.00
O2       0.05078    0.78300    -0.04854   1.00
C3       0.11605    0.92005    -0.01006   1.00
H1       0.11927    0.96821    -0.00657   1.00
C2       0.08713    0.88606    -0.02865   1.00
C5       0.32391    0.93838    0.00605   1.00
H2       0.35868    0.93858    0.01806   1.00
H2       0.29322    0.95978    0.01267   1.00
C5       0.36696    0.98385    -0.01125   1.00
H2       0.33222    0.98214    -0.02350   1.00
H2       0.39784    0.96236    -0.01762   1.00
C5       0.41324    1.05732    -0.00398   1.00
H2       0.44774    1.05935    0.00834   1.00
H2       0.38238    1.07963    0.00173   1.00
H2       0.44539    1.08945    -0.01673   1.00
C5       0.12878    0.90949    0.03783   1.00
C5       0.09544    0.79821    -0.06520   1.00
H2       0.11179    0.85552    0.04171   1.00
H2       0.08290    0.91413    0.03459   1.00
H2       0.13709    0.78751    -0.06123   1.00
H2       0.11997    0.85294    -0.06989   1.00
H2       0.05617    0.81698    -0.10810   1.00
H2       0.13013    0.87617    0.08006   1.00
H2       0.07463    0.91106    0.07508   1.00
C2       0.23258    0.75988    0.04338   1.00
C3       0.16191    0.73622    0.04412   1.00
O2       0.12470    0.70388    0.06125   1.00
C3       0.27134    0.80494    0.02757   1.00
H1       0.32522    0.82259    0.02627   1.00
C3a      0.13219    0.75915    0.02957   1.00
H1       0.07881    0.74363    0.03103   1.00
C3b      0.24206    0.82935    0.01352   1.00
C4       0.17201    0.80660    0.01446   1.00
O_3      0.17454    0.93200    0.02131   1.00
C5       0.08728    0.63273    0.05814   1.00
H2       0.05131    0.61928    0.04510   1.00
C5       0.04673    0.60086    0.07757   1.00
H2       0.12198    0.61208    0.05514   1.00
H2       0.00070    0.60662    0.07749   1.00
H2       0.07876    0.63166    0.09057   1.00
C5       0.02626    0.52528    0.08009   1.00
H2       -0.00099   0.49637    0.06628   1.00
H2       -0.00788   0.50242    0.09344   1.00
H2       0.07184    0.51946    0.08279   1.00
C5       0.16633    0.95416    0.05598   1.00
H2       0.17285    1.00573    0.05346   1.00
H2       0.21840    0.96056    0.05648   1.00
C5       0.12865    0.92330    0.07604   1.00
H2       0.15352    0.96037    0.08860   1.00
C5       0.08315    0.30773    0.41466   1.00
H2       0.11415    0.28464    0.40987   1.00
H2       0.11637    0.36360    0.41256   1.00
C5       0.01910    0.28043    0.40104   1.00
H2       0.03160    0.30861    0.38639   1.00
H2       -0.02125   0.28613    0.40892   1.00
O_3      0.06113    0.35661    0.51800   1.00
C4       0.14328    0.31002    0.50014   1.00
C3c      0.14370    0.32255    0.47926   1.00
H1       0.16641    0.37445    0.47384   1.00
C3d      0.11431    0.24207    0.50686   1.00
C3       0.11419    0.26876    0.46513   1.00
O2       0.12389    0.28511    0.44484   1.00
C3       0.08373    0.18835    0.49287   1.00
H1       0.06000    0.13702    0.49881   1.00
C2       0.08304    0.20009    0.47173   1.00
C5       0.01933    0.31336    0.53366   1.00
H2       0.02634    0.34136    0.54818   1.00
H2       0.03013    0.27110    0.53652   1.00
C5       -0.05436   0.28328    0.52694   1.00
H2       -0.06091   0.25694    0.51214   1.00
H2       -0.06475   0.32587    0.52431   1.00
C5       -0.10341   0.23351    0.54285   1.00
H2       -0.09681   0.25936    0.55770   1.00
H2       -0.09466   0.18972    0.54497   1.00
H2       -0.15706   0.21319    0.53788   1.00
C5       0.16779    0.22854    0.53429   1.00
C5       0.06859    0.29087    0.43724   1.00
H2       0.21310    0.28027    0.53253   1.00
H2       0.17740    0.19116    0.52602   1.00
H2       0.06548    0.33261    0.44526   1.00
H2       0.01848    0.24298    0.43931   1.00
H2       -0.00131   0.22556    0.39711   1.00
H2       0.25998    0.28473    0.56829   1.00
H2       0.25246    0.20570    0.55896   1.00
C2       0.22529    0.47097    0.54404   1.00
C3       0.26826    0.45089    0.53449   1.00
O2       0.33157    0.46984    0.54250   1.00
C3       0.15610    0.43910    0.53802   1.00
H1       0.12231    0.45455    0.54466   1.00
C3a      0.24117    0.39887    0.51970   1.00
H1       0.27378    0.38138    0.51336   1.00
C3b      0.12883    0.38588    0.52378   1.00
C4       0.17135    0.36525    0.51452   1.00
O_3      0.10799    0.22676    0.52735   1.00
C5       0.38296    0.52462    0.53134   1.00
H2       0.38248    0.51050    0.51508   1.00
C5       0.45131    0.54173    0.54090   1.00
H2       0.37642    0.57019    0.53208   1.00
H2       0.46578    0.50428    0.53533   1.00
H2       0.44301    0.53341    0.55756   1.00
C5       0.50842    0.61522    0.53639   1.00
H2       0.51232    0.62427    0.51975   1.00
H2       0.55840    0.62388    0.54211   1.00
H2       0.49868    0.65352    0.54411   1.00
C5       0.15801    0.21020    0.55673   1.00
H2       0.12059    0.15474    0.55820   1.00
H2       0.13471    0.23801    0.56407   1.00
C5       0.22573    0.22835    0.56724   1.00
H2       0.21576    0.20790    0.58296   1.00
C5       0.72158    0.71710    0.42540   1.00
H2       0.73039    0.76122    0.41588   1.00
H2       0.66656    0.67891    0.42380   1.00
C5       0.76588    0.68761    0.41748   1.00
H2       0.74116    0.65343    0.40425   1.00
H2       0.77358    0.65823    0.42971   1.00
O_3      0.67743    0.73668    0.52918   1.00
C4       0.68976    0.83315    0.50006   1.00
C3c      0.68218    0.80171    0.48113   1.00
H1       0.63416    0.75719    0.47723   1.00
C3d      0.75243    0.89168    0.50473   1.00
C3       0.73630    0.82636    0.46710   1.00
O2       0.72260    0.79816    0.44799   1.00
C3       0.80683    0.91558    0.49096   1.00
H1       0.85467    0.95918    0.49550   1.00
C2       0.80027    0.88396    0.47184   1.00
C5       0.72357    0.76642    0.54545   1.00
H2       0.69727    0.75360    0.56044   1.00
H2       0.75329    0.82309    0.54399   1.00
C5       0.77240    0.73877    0.54491   1.00
H2       0.79727    0.74990    0.52972   1.00
H2       0.74225    0.68225    0.54657   1.00
C5       0.82607    0.77048    0.56174   1.00
H2       0.80157    0.75997    0.57694   1.00
H2       0.85776    0.82666    0.55970   1.00
H2       0.86036    0.74854    0.56138   1.00
C5       0.74238    0.96989    0.52399   1.00
C5       0.73702    0.74424    0.44717   1.00
H2       0.68666    0.94548    0.52110   1.00
H2       0.76994    1.01072    0.51246   1.00
H2       0.70388    0.70325    0.45808   1.00
H2       0.79121    0.76114    0.45115   1.00
H2       0.81664    0.72900    0.41206   1.00
H2       0.66345    1.00633    0.55023   1.00
H2       0.72986    1.07903    0.53659   1.00
C2       0.52969    0.75612    0.54425   1.00
C3       0.53276    0.80171    0.52912   1.00
O2       0.49602    0.83494    0.53121   1.00
C3       0.57837    0.73437    0.54374   1.00
H1       0.57634    0.69814    0.55479   1.00
C3a      0.58476    0.82565    0.51433   1.00
H1       0.58876    0.86350    0.50357   1.00
C3b      0.63132    0.75995    0.52942   1.00
C4       0.63494    0.80607    0.51458   1.00
O_3      0.76418    0.92142    0.52374   1.00
C5       0.43703    0.80360    0.51898   1.00
H2       0.45037    0.80462    0.50263   1.00
C5       0.39992    0.84392    0.52188   1.00
H2       0.40285    0.74959    0.52363   1.00
H2       0.42563    0.89078    0.51238   1.00
H2       0.40723    0.86124    0.53797   1.00
C5       0.32337    0.80213    0.51666   1.00
H2       0.31691    0.78075    0.50111   1.00
H2       0.29945    0.83472    0.51730   1.00
H2       0.29518    0.75972    0.52774   1.00
C5       0.75744    1.00206    0.54500   1.00
H2       0.81358    1.03614    0.54650   1.00
H2       0.74206    0.96071    0.55645   1.00
C5       0.71960    1.04160    0.54893   1.00
H2       0.73720    1.07012    0.56345   1.00
C5       0.28075    1.00032    0.42469   1.00
H2       0.23597    0.96501    0.41539   1.00
H2       0.31826    0.98263    0.42302   1.00
C5       0.31084    1.07385    0.41648   1.00
H2       0.34425    1.08221    0.40314   1.00
H2       0.34118    1.11131    0.42853   1.00
O_3      0.26529    0.94116    0.52867   1.00
C4       0.16685    0.85662    0.50007   1.00
C3c      0.19749    0.87927    0.48098   1.00
H1       0.24139    0.87482    0.47696   1.00
C3d      0.10910    0.86198    0.50490   1.00
C3       0.17286    0.90875    0.46695   1.00
O2       0.20015    0.92201    0.44772   1.00
C3       0.08525    0.89249    0.49111   1.00
H1       0.04231    0.89771    0.49577   1.00
C2       0.11609    0.91635    0.47183   1.00
C5       0.23686    0.95894    0.54499   1.00
H2       0.25007    0.94583    0.55998   1.00
H2       0.18015    0.93265    0.54377   1.00
C5       0.26552    1.03556    0.54416   1.00
H2       0.25398    1.04890    0.52897   1.00
H2       0.32208    1.06129    0.54559   1.00
C5       0.23525    1.05900    0.56103   1.00
H2       0.24617    1.04542    0.57623   1.00
H2       0.17904    1.03516    0.55921   1.00
H2       0.25792    1.11531    0.56046   1.00
C5       0.03102    0.77519    0.52461   1.00
C5       0.25470    0.98997    0.44656   1.00
H2       0.05457    0.74308    0.52173   1.00
H2       -0.01023   0.76197    0.51323   1.00
H2       0.29600    0.99770    0.45733   1.00
H2       0.23875    1.02803    0.45049   1.00
H2       0.26969    1.08374    0.41116   1.00
H2       -0.00576   0.66069    0.55126   1.00
H2       -0.07860   0.65493    0.53785   1.00
C2       0.24397    0.77363    0.54424   1.00
C3       0.19734    0.73084    0.52936   1.00
O2       0.16333    0.66095    0.53174   1.00
C3       0.26668    0.84427    0.54349   1.00
H1       0.30370    0.87864    0.55434   1.00
C3a      0.17335    0.75885    0.51457   1.00
H1       0.13474    0.72486    0.50401   1.00
C3b      0.24108    0.87162    0.52917   1.00
C4       0.19393    0.82886    0.51458   1.00
O_3      0.08023    0.84522    0.52403   1.00
C5       0.19335    0.63198    0.51949   1.00
H2       0.19176    0.64368    0.50311   1.00
C5       0.15223    0.55473    0.52271   1.00
H2       0.24746    0.65129    0.52393   1.00
H2       0.10496    0.53376    0.51340   1.00
H2       0.13567    0.54567    0.53887   1.00
C5       0.19284    0.51876    0.51746   1.00
H2       0.21353    0.53272    0.50182   1.00
H2       0.15962    0.46235    0.51834   1.00
H2       0.23566    0.53289    0.52838   1.00
C5       -0.00014   0.75944    0.54576   1.00
H2       -0.03350   0.78232    0.54729   1.00
H2       0.04183    0.78546    0.55701   1.00
C5       -0.04044   0.68227    0.55001   1.00
H2       -0.06820   0.67241    0.56464   1.00
C5       0.04931    0.13170    1.00131   1.00
H2       0.01897    0.07529    1.00258   1.00
H2       0.04963    0.14333    0.98493   1.00
C5       0.01462    0.16389    1.01376   1.00
H2       -0.02798   0.16289    1.00504   1.00
H2       0.05247    0.21766    1.01764   1.00
O_3      0.40299    0.28316    1.00008   1.00
C4       0.31002    0.14197    0.99985   1.00
C3c      0.24606    0.13493    0.99556   1.00
H1       0.23732    0.15138    0.98104   1.00
C3d      0.32005    0.11931    1.01875   1.00
C3       0.19291    0.10765    1.00994   1.00
O2       0.12944    0.09466    1.00378   1.00
C3       0.26765    0.09333    1.03324   1.00
H1       0.27850    0.07886    1.04779   1.00
C2       0.20290    0.08654    1.02924   1.00
C5       0.45237    0.30271    1.01557   1.00
H2       0.50540    0.33163    1.00954   1.00
H2       0.44664    0.25732    1.02395   1.00
C5       0.44174    0.34837    1.03022   1.00
H2       0.38815    0.32015    1.03581   1.00
H2       0.44820    0.39381    1.02173   1.00
C5       0.49200    0.37009    1.04800   1.00
H2       0.54562    0.39788    1.04252   1.00
H2       0.48399    0.32491    1.05690   1.00
H2       0.48446    0.40464    1.05831   1.00
C5       0.39052    0.07448    1.01756   1.00
C5       0.12131    0.15123    1.00829   1.00
H2       0.38750    0.07017    1.00074   1.00
H2       0.35055    0.02526    1.02421   1.00
H2       0.16001    0.19721    0.99990   1.00
H2       0.12770    0.16416    1.02482   1.00
H2       -0.00832   0.13466    1.02804   1.00
H2       0.49177    0.05472    0.99687   1.00
H2       0.44106    -0.01337   1.01469   1.00
C2       0.47597    0.23154    0.95768   1.00
C3       0.42788    0.16122    0.95658   1.00
O2       0.44226    0.11790    0.94569   1.00
C3       0.46587    0.27151    0.97226   1.00
H1       0.50078    0.32580    0.97313   1.00
C3a      0.37246    0.13238    0.97024   1.00
H1       0.33829    0.07783    0.96997   1.00
C3b      0.41195    0.24230    0.98624   1.00
C4       0.36477    0.17221    0.98534   1.00
O_3      0.38354    0.12982    1.02430   1.00
C5       0.40815    0.10200    0.92685   1.00
H2       0.35174    0.07677    0.92893   1.00
C5       0.42569    0.05313    0.91590   1.00
H2       0.42533    0.14880    0.91750   1.00
H2       0.39313    0.00100    0.92220   1.00
H2       0.47933    0.06855    0.91985   1.00
C5       0.41687    0.05293    0.89270   1.00
H2       0.36468    0.04277    0.88909   1.00
H2       0.42449    0.01281    0.88546   1.00
H2       0.45535    0.10262    0.88582   1.00
C5       0.46036    0.08763    1.02431   1.00
H2       0.45926    0.08021    1.04104   1.00
H2       0.49824    0.14216    1.02129   1.00
C5       0.48142    0.04110    1.01327   1.00
H2       0.52902    0.04701    1.02005   1.00
C5       0.70123    0.74318    1.06703   1.00
H2       0.73825    0.74585    1.07855   1.00
H2       0.65723    0.69037    1.06781   1.00
C5       0.67838    0.79530    1.07238   1.00
H2       0.63785    0.77446    1.08420   1.00
H2       0.65848    0.80792    1.05860   1.00
O_3      0.75681    0.69107    0.96644   1.00
C4       0.83305    0.68966    0.99997   1.00
C3c      0.79528    0.68682    1.01721   1.00
H1       0.74571    0.64253    1.01978   1.00
C3d      0.89795    0.74741    0.99706   1.00
C3       0.82015    0.74106    1.03119   1.00
O2       0.78422    0.73116    1.04891   1.00
C3       0.92229    0.80206    1.01075   1.00
H1       0.97127    0.84630    1.00751   1.00
C2       0.88443    0.80034    1.02814   1.00
C5       0.79814    0.73546    0.95091   1.00
H2       0.78885    0.70908    0.93599   1.00
H2       0.85336    0.75837    0.95467   1.00
C5       0.78089    0.79199    0.94896   1.00
H2       0.78834    0.81711    0.96402   1.00
H2       0.72582    0.76859    0.94503   1.00
C5       0.82546    0.84411    0.93283   1.00
H2       0.81864    0.81929    0.91778   1.00
H2       0.88030    0.86922    0.93710   1.00
H2       0.81109    0.88421    0.93131   1.00
C5       0.97513    0.72407    0.98232   1.00
C5       0.73762    0.75504    1.04660   1.00
H2       0.94287    0.66837    0.98510   1.00
H2       1.01135    0.74735    0.99525   1.00
H2       0.70009    0.72585    1.03440   1.00
H2       0.76335    0.81026    1.04239   1.00
H2       0.72152    0.84317    1.07881   1.00
H2       1.00659    0.63352    0.95997   1.00
H2       1.07689    0.69336    0.97581   1.00
C2       0.75697    0.52981    0.95572   1.00
C3       0.79195    0.52622    0.97298   1.00
O2       0.81686    0.48171    0.97343   1.00
C3       0.74503    0.58528    0.95404   1.00
H1       0.71687    0.58858    0.94128   1.00
C3a      0.81551    0.57833    0.98772   1.00
H1       0.84557    0.57687    1.00025   1.00
C3b      0.77042    0.63813    0.96840   1.00
C4       0.80610    0.63503    0.98539   1.00
O_3      0.93489    0.75498    0.97957   1.00
C5       0.77377    0.42376    0.98515   1.00
H2       0.76973    0.43816    1.00107   1.00
C5       0.80534    0.37772    0.98518   1.00
H2       0.72160    0.39560    0.97847   1.00
H2       0.84758    0.39804    0.99646   1.00
H2       0.82911    0.38254    0.97003   1.00
C5       0.75304    0.30253    0.98980   1.00
H2       0.72599    0.29925    1.00419   1.00
H2       0.77880    0.27184    0.99138   1.00
H2       0.71510    0.27884    0.97724   1.00
C5       1.01568    0.73476    0.96290   1.00
H2       1.05611    0.78941    0.96200   1.00
H2       0.98092    0.72459    0.94977   1.00
C5       1.04688    0.68804    0.96188   1.00
H2       1.08173    0.70214    0.94864   1.00
C5       0.99978    0.28047    1.07540   1.00
H2       0.96448    0.23560    1.08467   1.00
H2       0.98199    0.31789    1.07708   1.00
C5       1.07328    0.31063    1.08364   1.00
H2       1.08149    0.34394    1.09701   1.00
H2       1.11079    0.34109    1.07163   1.00
O_3      0.94121    0.26554    0.97139   1.00
C4       0.85662    0.16684    0.99993   1.00
C3c      0.87911    0.19739    1.01904   1.00
H1       0.87454    0.24120    1.02308   1.00
C3d      0.86214    0.10920    0.99508   1.00
C3       0.90859    0.17276    1.03307   1.00
O2       0.92170    0.19992    1.05232   1.00
C3       0.89265    0.08536    1.00887   1.00
H1       0.89799    0.04250    1.00420   1.00
C2       0.91636    0.11610    1.02817   1.00
C5       0.95917    0.23728    0.95507   1.00
H2       0.94611    0.25055    0.94009   1.00
H2       0.93296    0.18057    0.95626   1.00
C5       1.03580    0.26607    0.95594   1.00
H2       1.04909    0.25448    0.97113   1.00
H2       1.06144    0.32263    0.95454   1.00
C5       1.05944    0.23598    0.93906   1.00
H2       1.04590    0.24696    0.92386   1.00
H2       1.03568    0.17978    0.94086   1.00
H2       1.11575    0.25875    0.93966   1.00
C5       0.77554    0.03114    0.97531   1.00
C5       0.98961    0.25456    1.05352   1.00
H2       0.74333    0.05458    0.97819   1.00
H2       0.76233    -0.01016   0.98667   1.00
H2       0.99732    0.29589    1.04277   1.00
H2       1.02777    0.23873    1.04960   1.00
H2       1.08323    0.26952    1.08896   1.00
H2       0.66116    -0.00568   0.94861   1.00
H2       0.65547    -0.07854   0.96199   1.00
C2       0.77364    0.24398    0.95576   1.00
C3       0.73081    0.19722    0.97061   1.00
O2       0.66094    0.16311    0.96819   1.00
C3       0.84430    0.26682    0.95655   1.00
H1       0.87869    0.30394    0.94572   1.00
C3a      0.75881    0.17322    0.98540   1.00
H1       0.72481    0.13452    0.99594   1.00
C3b      0.87165    0.24121    0.97087   1.00
C4       0.82886    0.19393    0.98542   1.00
O_3      0.84553    0.08045    0.97593   1.00
C5       0.63180    0.19296    0.98044   1.00
H2       0.64342    0.19130    0.99683   1.00
C5       0.55458    0.15174    0.97718   1.00
H2       0.65104    0.24708    0.97603   1.00
H2       0.53362    0.10442    0.98647   1.00
H2       0.54563    0.13527    0.96101   1.00
C5       0.51844    0.19220    0.98244   1.00
H2       0.53228    0.21280    0.99809   1.00
H2       0.46206    0.15889    0.98152   1.00
H2       0.53256    0.23506    0.97154   1.00
C5       0.75997    0.00011    0.95415   1.00
H2       0.78295    -0.03315   0.95261   1.00
H2       0.78599    0.04217    0.94292   1.00
C5       0.68283    -0.04028   0.94985   1.00
H2       0.67310    -0.06795   0.93521   1.00
C5       0.64613    1.04378    0.91190   1.00
H2       0.69514    1.09011    0.90803   1.00
H2       0.65460    1.00002    0.90949   1.00
C5       0.62835    1.04732    0.93437   1.00
H2       0.65662    1.03097    0.94461   1.00
H2       0.57262    1.01371    0.93688   1.00
O_3      0.39089    0.91439    0.83854   1.00
C4       0.52454    1.02365    0.83307   1.00
C3c      0.56190    1.02208    0.84986   1.00
H1       0.56944    0.97898    0.85201   1.00
C3d      0.51615    1.08074    0.83039   1.00
C3       0.58918    1.07523    0.86423   1.00
O2       0.63204    1.07415    0.87884   1.00
C3       0.54213    1.13313    0.84488   1.00
H1       0.53234    1.17473    0.84256   1.00
C2       0.57940    1.13201    0.86206   1.00
C5       0.34083    0.93095    0.83282   1.00
H2       0.30429    0.89439    0.82150   1.00
H2       0.36466    0.98327    0.82622   1.00
C5       0.30137    0.92818    0.85178   1.00
H2       0.33814    0.96330    0.86331   1.00
H2       0.27728    0.87557    0.85814   1.00
C5       0.24723    0.94798    0.84703   1.00
H2       0.21063    0.91342    0.83542   1.00
H2       0.27143    1.00134    0.84135   1.00
H2       0.21793    0.94420    0.86098   1.00
C5       0.51506    1.10949    0.79729   1.00
C5       0.59439    1.04139    0.89649   1.00
H2       0.53583    1.07695    0.79191   1.00
H2       0.55838    1.16224    0.79983   1.00
H2       0.55547    0.98744    0.89301   1.00
H2       0.56679    1.06671    0.90282   1.00
H2       0.64352    1.10066    0.93887   1.00
H2       0.50319    1.07663    0.75461   1.00
H2       0.55255    1.16780    0.75941   1.00
C2       0.43383    0.86016    0.79010   1.00
C3       0.50216    0.91257    0.78762   1.00
O2       0.53471    0.92146    0.76924   1.00
C3       0.39791    0.86151    0.80750   1.00
H1       0.34612    0.82121    0.81011   1.00
C3a      0.53218    0.96544    0.80210   1.00
H1       0.58321    1.00722    0.79938   1.00
C3b      0.42718    0.91531    0.82152   1.00
C4       0.49476    0.96792    0.81887   1.00
O_3      0.47549    1.08241    0.81498   1.00
C5       0.57889    0.89444    0.77007   1.00
H2       0.61844    0.91990    0.78210   1.00
C5       0.61370    0.90728    0.74934   1.00
H2       0.54999    0.83857    0.77316   1.00
H2       0.65595    0.96121    0.74878   1.00
H2       0.57583    0.90219    0.73768   1.00
C5       0.64069    0.85821    0.74476   1.00
H2       0.67417    0.86002    0.75735   1.00
H2       0.67057    0.87274    0.73040   1.00
H2       0.59797    0.80468    0.74272   1.00
C5       0.46867    1.11152    0.78093   1.00
H2       0.45747    1.15286    0.78471   1.00
H2       0.41925    1.06259    0.78145   1.00
C5       0.50048    1.12227    0.75965   1.00
H2       0.46869    1.13059    0.74845   1.00
C5       -0.03298   0.58169    0.91584   1.00
H2       -0.07586   0.59124    0.91306   1.00
H2       0.01424    0.63216    0.91463   1.00
C5       -0.03958   0.55181    0.93738   1.00
H2       -0.01933   0.59302    0.94900   1.00
H2       -0.01088   0.52384    0.93830   1.00
O_3      0.07548    0.46083    0.83530   1.00
C4       -0.02360   0.50099    0.83308   1.00
C3c      -0.01807   0.53564    0.85128   1.00
H1       0.02820    0.58292    0.85455   1.00
C3d      -0.08470   0.43997    0.82898   1.00
C3       -0.07132   0.50963    0.86562   1.00
O2       -0.06557   0.55035    0.88186   1.00
C3       -0.13731   0.41327    0.84340   1.00
H1       -0.18225   0.36510    0.83990   1.00
C2       -0.13227   0.44727    0.86198   1.00
C5       0.05225    0.39499    0.82729   1.00
H2       0.08683    0.39479    0.81529   1.00
H2       0.00015    0.37357    0.82067   1.00
C5       0.04984    0.34954    0.84460   1.00
H2       0.01681    0.35126    0.85684   1.00
H2       0.10222    0.37105    0.85097   1.00
C5       0.02268    0.27607    0.83734   1.00
H2       0.05515    0.27403    0.82502   1.00
H2       -0.03050   0.25373    0.83163   1.00
H2       0.02271    0.24396    0.85009   1.00
C5       -0.11403   0.42379    0.79550   1.00
C5       -0.03611   0.53517    0.89852   1.00
H2       -0.07707   0.47776    0.79162   1.00
H2       -0.16455   0.41913    0.79874   1.00
H2       0.01624    0.54588    0.89455   1.00
H2       -0.06630   0.48045    0.90322   1.00
H2       -0.09416   0.51642    0.94143   1.00
H2       -0.07937   0.45707    0.75328   1.00
H2       -0.16976   0.42216    0.75825   1.00
C2       0.13937    0.57345    0.78995   1.00
C3       0.09235    0.59709    0.78920   1.00
O2       0.08746    0.62941    0.77207   1.00
C3       0.13309    0.52841    0.80576   1.00
H1       0.16932    0.51078    0.80707   1.00
C3a      0.03970    0.57416    0.80375   1.00
H1       0.00183    0.58966    0.80229   1.00
C3b      0.07940    0.50401    0.81982   1.00
C4       0.03207    0.52673    0.81887   1.00
O_3      -0.09078   0.40130    0.81202   1.00
C5       0.12118    0.70056    0.77518   1.00
H2       0.09865    0.71401    0.78821   1.00
C5       0.11248    0.73240    0.75574   1.00
H2       0.17653    0.72123    0.77817   1.00
H2       0.06068    0.72662    0.75582   1.00
H2       0.11373    0.70160    0.74274   1.00
C5       0.16757    0.80798    0.75321   1.00
H2       0.16924    0.83691    0.76702   1.00
H2       0.15629    0.83083    0.73986   1.00
H2       0.21898    0.81381    0.75051   1.00
C5       -0.12114   0.37910    0.77736   1.00
H2       -0.16617   0.32753    0.77988   1.00
H2       -0.07546   0.37272    0.77686   1.00
C5       -0.12797   0.40994    0.75729   1.00
H2       -0.14015   0.37286    0.74474   1.00
C5       0.41788    0.38471    0.91578   1.00
H2       0.40846    0.33234    0.91298   1.00
H2       0.36736    0.38135    0.91455   1.00
C5       0.44759    0.40789    0.93734   1.00
H2       0.40631    0.38679    0.94893   1.00
H2       0.47546    0.46456    0.93829   1.00
O_3      0.53888    0.61456    0.83536   1.00
C4       0.49901    0.47539    0.83308   1.00
C3c      0.46427    0.44612    0.85125   1.00
H1       0.41692    0.44498    0.85450   1.00
C3d      0.56013    0.47548    0.82900   1.00
C3       0.49028    0.41888    0.86559   1.00
O2       0.44948    0.38375    0.88181   1.00
C3       0.58682    0.44957    0.84342   1.00
H1       0.63507    0.45294    0.83995   1.00
C2       0.55273    0.42046    0.86198   1.00
C5       0.60475    0.65732    0.82740   1.00
H2       0.60495    0.69214    0.81541   1.00
H2       0.62631    0.62677    0.82078   1.00
C5       0.65004    0.70031    0.84475   1.00
H2       0.64832    0.66552    0.85697   1.00
H2       0.62839    0.73105    0.85112   1.00
C5       0.72354    0.74678    0.83753   1.00
H2       0.72558    0.78133    0.82522   1.00
H2       0.74601    0.71606    0.83182   1.00
H2       0.75553    0.77887    0.85031   1.00
C5       0.57659    0.46261    0.79553   1.00
C5       0.46447    0.42827    0.89849   1.00
H2       0.52262    0.44552    0.79162   1.00
H2       0.58133    0.41678    0.79876   1.00
H2       0.45367    0.46986    0.89453   1.00
H2       0.51916    0.45287    0.90322   1.00
H2       0.48304    0.38878    0.94139   1.00
H2       0.54354    0.46418    0.75329   1.00
H2       0.57859    0.40881    0.75826   1.00
C2       0.42655    0.56592    0.78995   1.00
C3       0.40305    0.49528    0.78917   1.00
O2       0.37089    0.45816    0.77202   1.00
C3       0.47144    0.60463    0.80580   1.00
H1       0.48896    0.65847    0.80713   1.00
C3a      0.42597    0.46556    0.80372   1.00
H1       0.41059    0.41222    0.80223   1.00
C3b      0.49585    0.57535    0.81985   1.00
C4       0.47327    0.50534    0.81887   1.00
O_3      0.59888    0.50824    0.81208   1.00
C5       0.29972    0.42059    0.77508   1.00
H2       0.28625    0.38453    0.78809   1.00
C5       0.26807    0.38015    0.75561   1.00
H2       0.27893    0.45516    0.77808   1.00
H2       0.27396    0.33419    0.75568   1.00
H2       0.29892    0.41231    0.74264   1.00
C5       0.19247    0.35952    0.75304   1.00
H2       0.16348    0.33213    0.76683   1.00
H2       0.16976    0.32547    0.73967   1.00
H2       0.18654    0.40505    0.75036   1.00
C5       0.62136    0.50036    0.77742   1.00
H2       0.67295    0.50699    0.77996   1.00
H2       0.62763    0.55238    0.77694   1.00
C5       0.59071    0.46279    0.75733   1.00
H2       0.62785    0.48782    0.74479   1.00
C5       0.63838    0.40349    0.34153   1.00
H2       0.65950    0.37141    0.33609   1.00
H2       0.63904    0.40127    0.35836   1.00
C5       0.68414    0.47766    0.33410   1.00
H2       0.72954    0.50553    0.34408   1.00
H2       0.65474    0.50501    0.33404   1.00
O_3      0.28538    0.25866    0.34307   1.00
C4       0.35650    0.18996    0.33342   1.00
C3c      0.42427    0.23360    0.33943   1.00
H1       0.43600    0.24579    0.35530   1.00
C3d      0.34245    0.17395    0.31269   1.00
C3       0.47763    0.26287    0.32515   1.00
O2       0.54343    0.29824    0.33235   1.00
C3       0.39527    0.20404    0.29839   1.00
H1       0.38168    0.19215    0.28260   1.00
C2       0.46398    0.24887    0.30419   1.00
C5       0.23717    0.25028    0.32811   1.00
H2       0.18504    0.23003    0.33455   1.00
H2       0.23448    0.21482    0.31592   1.00
C5       0.25980    0.31989    0.31890   1.00
H2       0.31265    0.34098    0.31297   1.00
H2       0.26169    0.35468    0.33116   1.00
C5       0.21129    0.31502    0.30191   1.00
H2       0.15833    0.29355    0.30769   1.00
H2       0.21118    0.28218    0.28933   1.00
H2       0.22780    0.36658    0.29566   1.00
C5       0.25603    0.06564    0.30667   1.00
C5       0.56476    0.36840    0.33382   1.00
H2       0.25689    0.04918    0.32250   1.00
H2       0.28967    0.05397    0.29714   1.00
H2       0.53167    0.37626    0.34475   1.00
H2       0.56204    0.39075    0.31896   1.00
H2       0.70418    0.47896    0.31850   1.00
H2       0.13969    -0.05955   0.32052   1.00
H2       0.18200    -0.07218   0.29891   1.00
C2       0.19108    0.10551    0.37583   1.00
C3       0.22837    0.07198    0.37203   1.00
O2       0.20249    0.00486    0.37772   1.00
C3       0.21192    0.16864    0.36611   1.00
H1       0.18555    0.19644    0.36910   1.00
C3a      0.28379    0.10094    0.35838   1.00
H1       0.30935    0.07275    0.35475   1.00
C3b      0.26567    0.19621    0.35205   1.00
C4       0.30202    0.16231    0.34805   1.00
O_3      0.27605    0.13545    0.30582   1.00
C5       0.23455    0.00111    0.39563   1.00
H2       0.29079    0.02471    0.39348   1.00
C5       0.20404    -0.07458   0.40071   1.00
H2       0.22498    0.02741    0.40843   1.00
H2       0.22895    -0.09594   0.39095   1.00
H2       0.14927    -0.10089   0.39625   1.00
C5       0.21152    -0.08727   0.42330   1.00
H2       0.26587    -0.05639   0.42789   1.00
H2       0.19401    -0.14210   0.42607   1.00
H2       0.17959    -0.07404   0.43315   1.00
C5       0.18338    0.02550    0.29864   1.00
H2       0.18451    0.03311    0.28193   1.00
H2       0.15349    0.04766    0.30528   1.00
C5       0.14953    -0.05083   0.30390   1.00
H2       0.09957    -0.07949   0.29605   1.00
C5       0.59632    0.37337    0.33534   1.00
H2       0.57470    0.37975    0.32093   1.00
H2       0.57027    0.38504    0.34766   1.00
C5       0.58110    0.29890    0.33711   1.00
H2       0.52830    0.26492    0.34274   1.00
H2       0.61786    0.29617    0.34773   1.00
O_3      0.90918    0.64186    0.36702   1.00
C4       0.83402    0.64390    0.33329   1.00
C3c      0.76885    0.58629    0.33530   1.00
H1       0.73693    0.58273    0.34797   1.00
C3d      0.87441    0.64799    0.31650   1.00
C3       0.74422    0.53219    0.32127   1.00
O2       0.67707    0.48155    0.32283   1.00
C3       0.85056    0.59362    0.30272   1.00
H1       0.88430    0.59798    0.29049   1.00
C2       0.78508    0.53465    0.30465   1.00
C5       0.97729    0.66175    0.36208   1.00
H2       1.01464    0.70460    0.37175   1.00
H2       0.98857    0.67788    0.34588   1.00
C5       0.98664    0.60057    0.36550   1.00
H2       0.94805    0.55717    0.35627   1.00
H2       0.97588    0.58531    0.38175   1.00
C5       1.05898    0.61711    0.35977   1.00
H2       1.09780    0.66072    0.36883   1.00
H2       1.06894    0.63006    0.34338   1.00
H2       1.06530    0.57229    0.36280   1.00
C5       0.94115    0.75586    0.30433   1.00
C5       0.67212    0.42740    0.33478   1.00
H2       0.91258    0.77583    0.31292   1.00
H2       0.91842    0.74050    0.28887   1.00
H2       0.69123    0.44577    0.35043   1.00
H2       0.70268    0.40523    0.32847   1.00
H2       0.58437    0.27828    0.32200   1.00
H2       1.00407    0.90183    0.30902   1.00
H2       0.99023    0.87515    0.28262   1.00
C2       0.91476    0.80649    0.37666   1.00
C3       0.87416    0.80678    0.36046   1.00
O2       0.87391    0.86578    0.35540   1.00
C3       0.92494    0.74998    0.37867   1.00
H1       0.95429    0.74738    0.39121   1.00
C3a      0.84645    0.75224    0.34649   1.00
H1       0.81875    0.75508    0.33352   1.00
C3b      0.89914    0.69690    0.36439   1.00
C4       0.85967    0.69777    0.34811   1.00
O_3      0.94083    0.70113    0.31466   1.00
C5       0.81440    0.86347    0.36287   1.00
H2       0.76751    0.81916    0.35646   1.00
C5       0.81743    0.92982    0.35636   1.00
H2       0.81208    0.85962    0.37973   1.00
H2       0.80123    0.92480    0.34021   1.00
H2       0.87189    0.97095    0.35688   1.00
C5       0.77327    0.94837    0.36978   1.00
H2       0.72025    0.90463    0.37037   1.00
H2       0.77221    0.99357    0.36358   1.00
H2       0.79422    0.96208    0.38552   1.00
C5       1.01510    0.81241    0.30233   1.00
H2       1.04063    0.79650    0.29089   1.00
H2       1.04111    0.81743    0.31710   1.00
C5       1.02104    0.88094    0.29640   1.00
H2       1.07506    0.91903    0.29302   1.00
C5       0.76567    0.39657    0.33688   1.00
H2       0.79502    0.42073    0.32286   1.00
H2       0.80155    0.42208    0.34966   1.00
C5       0.70431    0.40865    0.33835   1.00
H2       0.72052    0.46033    0.34451   1.00
H2       0.66436    0.36967    0.34841   1.00
O_3      0.73040    0.08496    0.36588   1.00
C4       0.80992    0.16603    0.33329   1.00
C3c      0.81452    0.22976    0.33584   1.00
H1       0.84053    0.26056    0.34895   1.00
C3d      0.77666    0.12713    0.31596   1.00
C3       0.78502    0.25433    0.32180   1.00
O2       0.79873    0.32046    0.32398   1.00
C3       0.74611    0.15087    0.30215   1.00
H1       0.71906    0.11818    0.28947   1.00
C2       0.74963    0.21487    0.30462   1.00
C5       0.68477    0.01696    0.36009   1.00
H2       0.69088    -0.02052   0.36951   1.00
H2       0.69217    0.00822    0.34386   1.00
C5       0.61278    0.00434    0.36294   1.00
H2       0.60728    0.04302    0.35397   1.00
H2       0.60577    0.01259    0.37922   1.00
C5       0.55971    -0.06801   0.35628   1.00
H2       0.56523    -0.10688   0.36508   1.00
H2       0.56516    -0.07553   0.33985   1.00
H2       0.50742    -0.07679   0.35889   1.00
C5       0.82304    0.06525    0.30359   1.00
C5       0.74686    0.32164    0.33561   1.00
H2       0.87029    0.09417    0.31274   1.00
H2       0.83141    0.08975    0.28837   1.00
H2       0.74508    0.30095    0.35110   1.00
H2       0.69515    0.29031    0.32869   1.00
H2       0.68188    0.40634    0.32306   1.00
H2       0.91003    0.00677    0.30840   1.00
H2       0.89947    0.02310    0.28203   1.00
C2       0.89182    0.08516    0.37661   1.00
C3       0.93371    0.12865    0.36101   1.00
O2       0.99478    0.13210    0.35638   1.00
C3       0.82397    0.07207    0.37806   1.00
H1       0.79115    0.04042    0.39014   1.00
C3a      0.90677    0.15634    0.34707   1.00
H1       0.93828    0.18637    0.33454   1.00
C3b      0.79669    0.09791    0.36379   1.00
C4       0.83807    0.14029    0.34811   1.00
O_3      0.76625    0.06190    0.31353   1.00
C5       1.04964    0.19176    0.36469   1.00
H2       1.05097    0.23850    0.35866   1.00
C5       1.11519    0.19237    0.35862   1.00
H2       1.04597    0.19181    0.38155   1.00
H2       1.12782    0.21073    0.34269   1.00
H2       1.10393    0.13852    0.35864   1.00
C5       1.17564    0.23651    0.37280   1.00
H2       1.18270    0.28863    0.37385   1.00
H2       1.22355    0.24034    0.36695   1.00
H2       1.16729    0.21373    0.38832   1.00
C5       0.80878    -0.00749   0.30091   1.00
H2       0.76898    -0.03277   0.28901   1.00
H2       0.78674    -0.03569   0.31533   1.00
C5       0.87364    -0.00984   0.29539   1.00
H2       0.86018    -0.06287   0.29150   1.00
C5       0.84487    0.64163    0.74657   1.00
H2       0.86152    0.60311    0.74702   1.00
H2       0.89239    0.69205    0.74607   1.00
C5       0.80172    0.63084    0.72727   1.00
H2       0.83511    0.65452    0.71382   1.00
H2       0.76875    0.65390    0.72936   1.00
O_3      0.75497    0.72998    0.83786   1.00
C4       0.80970    0.64312    0.83355   1.00
C3c      0.83407    0.65202    0.81355   1.00
H1       0.87570    0.70098    0.80884   1.00
C3d      0.75606    0.57865    0.83945   1.00
C3       0.80477    0.59864    0.79928   1.00
O2       0.83660    0.60860    0.78079   1.00
C3       0.72592    0.52577    0.82518   1.00
H1       0.68334    0.47794    0.83021   1.00
C2       0.74945    0.53412    0.80483   1.00
C5       0.69420    0.70024    0.84934   1.00
H2       0.69710    0.73280    0.86242   1.00
H2       0.68210    0.64931    0.85534   1.00
C5       0.63693    0.69151    0.83541   1.00
H2       0.63527    0.66057    0.82205   1.00
H2       0.64923    0.74271    0.82967   1.00
C5       0.56825    0.65710    0.84654   1.00
H2       0.56970    0.68749    0.85998   1.00
H2       0.55480    0.60502    0.85167   1.00
H2       0.52727    0.65252    0.83625   1.00
C5       0.76283    0.55057    0.87226   1.00
C5       0.80736    0.63340    0.76661   1.00
H2       0.81679    0.59200    0.87375   1.00
H2       0.76203    0.50289    0.86750   1.00
H2       0.81467    0.68360    0.77174   1.00
H2       0.75133    0.59814    0.76463   1.00
H2       0.76902    0.57542    0.72368   1.00
H2       0.81861    0.58866    0.91265   1.00
H2       0.79009    0.49996    0.90677   1.00
C2       0.89150    0.80554    0.87697   1.00
C3       0.92204    0.76489    0.87431   1.00
O2       0.96644    0.76515    0.88869   1.00
C3       0.83601    0.79332    0.86433   1.00
H1       0.81265    0.82469    0.86563   1.00
C3a      0.89574    0.71246    0.85965   1.00
H1       0.91719    0.67930    0.85859   1.00
C3b      0.80860    0.73975    0.85021   1.00
C4       0.83834    0.69871    0.84780   1.00
O_3      0.72683    0.56867    0.85849   1.00
C5       1.03442    0.80551    0.88204   1.00
H2       1.04323    0.78580    0.86750   1.00
C5       1.08016    0.80225    0.89858   1.00
H2       1.04752    0.85950    0.87977   1.00
H2       1.08024    0.75335    0.89695   1.00
H2       1.05585    0.79994    0.91347   1.00
C5       1.15359    0.86326    0.89794   1.00
H2       1.17512    0.86799    0.88249   1.00
H2       1.18665    0.85621    0.90903   1.00
H2       1.15518    0.91189    0.90212   1.00
C5       0.72819    0.53892    0.89283   1.00
H2       0.67849    0.49033    0.89221   1.00
H2       0.71646    0.58057    0.89548   1.00
C5       0.77304    0.53728    0.91012   1.00
H2       0.74354    0.52167    0.92451   1.00
C5       0.59162    0.43485    0.82301   1.00
H2       0.62931    0.41724    0.82412   1.00
H2       0.58868    0.45313    0.83840   1.00
C5       0.61696    0.49381    0.80747   1.00
H2       0.65494    0.54304    0.81452   1.00
H2       0.57321    0.49842    0.80173   1.00
O_3      0.24733    0.18948    0.82799   1.00
C4       0.35677    0.16539    0.83352   1.00
C3c      0.41509    0.22992    0.83579   1.00
H1       0.41940    0.26118    0.84872   1.00
C3d      0.35260    0.12506    0.81671   1.00
C3       0.46809    0.25553    0.82137   1.00
O2       0.52704    0.31529    0.82586   1.00
C3       0.40469    0.15095    0.80213   1.00
H1       0.39813    0.11916    0.78912   1.00
C2       0.46368    0.21640    0.80407   1.00
C5       0.20002    0.14577    0.81339   1.00
H2       0.14706    0.11743    0.81950   1.00
H2       0.21387    0.10780    0.80776   1.00
C5       0.20141    0.18965    0.79576   1.00
H2       0.25472    0.21943    0.79001   1.00
H2       0.18689    0.22692    0.80152   1.00
C5       0.15297    0.14571    0.77879   1.00
H2       0.09972    0.11547    0.78446   1.00
H2       0.16883    0.11010    0.77255   1.00
H2       0.15356    0.17877    0.76624   1.00
C5       0.29799    0.01091    0.82329   1.00
C5       0.52386    0.37128    0.81761   1.00
H2       0.30101    0.01901    0.83999   1.00
H2       0.34310    0.00715    0.81832   1.00
H2       0.48045    0.37445    0.82445   1.00
H2       0.51622    0.36726    0.80080   1.00
H2       0.64334    0.48541    0.79439   1.00
H2       0.21064    -0.10421   0.84864   1.00
H2       0.26919    -0.11874   0.83346   1.00
C2       0.19054    0.08789    0.87561   1.00
C3       0.24662    0.07831    0.87926   1.00
O2       0.24155    0.03053    0.89320   1.00
C3       0.19252    0.12625    0.85842   1.00
H1       0.15121    0.13600    0.85549   1.00
C3a      0.30191    0.10534    0.86556   1.00
H1       0.34263    0.09426    0.86793   1.00
C3b      0.24656    0.15120    0.84448   1.00
C4       0.30178    0.14073    0.84795   1.00
O_3      0.29408    0.06343    0.81297   1.00
C5       0.27444    0.06282    0.91144   1.00
H2       0.32961    0.10004    0.90886   1.00
C5       0.26759    0.00683    0.92589   1.00
H2       0.25007    0.09026    0.91837   1.00
H2       0.30661    -0.00724   0.92172   1.00
H2       0.21691    -0.03914   0.92305   1.00
C5       0.27482    0.02803    0.94839   1.00
H2       0.32324    0.07688    0.95063   1.00
H2       0.27530    -0.01158   0.95828   1.00
H2       0.23096    0.03392    0.95351   1.00
C5       0.23335    -0.05584   0.81844   1.00
H2       0.23621    -0.06975   0.80242   1.00
H2       0.18923    -0.04704   0.81944   1.00
C5       0.22291    -0.11350   0.83298   1.00
H2       0.17949    -0.16277   0.82772   1.00
C5       0.57559    0.18382    0.82880   1.00
H2       0.59864    0.24012    0.82848   1.00
H2       0.56141    0.16850    0.84487   1.00
C5       0.51142    0.15069    0.81514   1.00
H2       0.46660    0.14693    0.82329   1.00
H2       0.49971    0.09869    0.81049   1.00
O_3      0.79527    0.05234    0.83111   1.00
C4       0.83469    0.19137    0.83350   1.00
C3c      0.77451    0.19323    0.83709   1.00
H1       0.74673    0.17268    0.85106   1.00
C3d      0.87065    0.21931    0.81532   1.00
C3       0.74874    0.22055    0.82269   1.00
O2       0.69439    0.22821    0.82829   1.00
C3       0.84443    0.24536    0.80079   1.00
H1       0.87249    0.26402    0.78677   1.00
C2       0.78325    0.24696    0.80408   1.00
C5       0.83066    0.03881    0.81585   1.00
H2       0.85645    0.01150    0.82188   1.00
H2       0.87002    0.08695    0.80851   1.00
C5       0.77887    -0.00605   0.80000   1.00
H2       0.75174    0.02040    0.79439   1.00
H2       0.74021    -0.05421   0.80746   1.00
C5       0.81357    -0.02129   0.78241   1.00
H2       0.84116    -0.04728   0.78793   1.00
H2       0.85047    0.02658    0.77451   1.00
H2       0.77474    -0.05536   0.77120   1.00
C5       0.98619    0.27029    0.81853   1.00
C5       0.63263    0.17018    0.82233   1.00
H2       0.98378    0.27110    0.83537   1.00
H2       0.99350    0.31960    0.81254   1.00
H2       0.62676    0.12378    0.83011   1.00
H2       0.63021    0.16067    0.80562   1.00
H2       0.51870    0.18214    0.80130   1.00
H2       1.10549    0.29363    0.84099   1.00
H2       1.12209    0.36391    0.82418   1.00
C2       0.91149    0.10210    0.87563   1.00
C3       0.92908    0.17103    0.87777   1.00
O2       0.98327    0.21451    0.88987   1.00
C3       0.86569    0.06312    0.85999   1.00
H1       0.84983    0.00977    0.85828   1.00
C3a      0.90232    0.19964    0.86410   1.00
H1       0.91932    0.25345    0.86522   1.00
C3b      0.84089    0.09229    0.84603   1.00
C4       0.85924    0.16109    0.84798   1.00
O_3      0.92726    0.21409    0.81038   1.00
C5       0.95945    0.22466    0.90859   1.00
H2       0.92583    0.24712    0.90637   1.00
C5       1.02222    0.27408    0.92092   1.00
H2       0.93037    0.17568    0.91702   1.00
H2       1.03990    0.32685    0.91545   1.00
H2       1.06363    0.26278    0.91733   1.00
C5       1.00856    0.26894    0.94395   1.00
H2       0.96367    0.27499    0.94710   1.00
H2       1.05345    0.30939    0.95224   1.00
H2       0.99921    0.21900    0.95014   1.00
C5       1.04709    0.26305    0.81241   1.00
H2       1.05648    0.27403    0.79589   1.00
H2       1.03326    0.20885    0.81462   1.00
C5       1.11123    0.31029    0.82483   1.00
H2       1.15609    0.30894    0.81856   1.00
C5       -0.04045   0.36256    0.41310   1.00
H2       -0.05476   0.39720    0.42081   1.00
H2       0.01555    0.38606    0.41512   1.00
C5       -0.07801   0.29147    0.42327   1.00
H2       -0.05112   0.29075    0.43732   1.00
H2       -0.08085   0.25201    0.41261   1.00
O_3      0.00202    0.39074    0.30832   1.00
C4       -0.02318   0.47669    0.33324   1.00
C3c      -0.01277   0.46242    0.35322   1.00
H1       0.03746    0.47350    0.35795   1.00
C3d      -0.08882   0.46277    0.32747   1.00
C3       -0.06677   0.43291    0.36729   1.00
O2       -0.05111   0.42814    0.38717   1.00
C3       -0.14297   0.43218    0.34132   1.00
H1       -0.19289   0.42021    0.33600   1.00
C2       -0.13349   0.41672    0.36153   1.00
C5       -0.04407   0.36370    0.29192   1.00
H2       -0.01739   0.37439    0.27702   1.00
H2       -0.07911   0.38498    0.29156   1.00
C5       -0.08579   0.28692    0.29479   1.00
H2       -0.11092   0.27625    0.30993   1.00
H2       -0.05035   0.26615    0.29493   1.00
C5       -0.13909   0.25355    0.27792   1.00
H2       -0.11438   0.26440    0.26275   1.00
H2       -0.17593   0.27251    0.27821   1.00
H2       -0.16806   0.19731    0.28003   1.00
C5       -0.08896   0.53856    0.30471   1.00
C5       -0.05747   0.36360    0.39068   1.00
H2       -0.03417   0.57593    0.30738   1.00
H2       -0.12033   0.55108    0.31498   1.00
H2       -0.02094   0.35703    0.38090   1.00
H2       -0.10983   0.32056    0.38723   1.00
H2       -0.13075   0.27788    0.42799   1.00
H2       -0.01945   0.64616    0.27528   1.00
H2       -0.09112   0.64776    0.28714   1.00
C2       0.13718    0.55924    0.28914   1.00
C3       0.12778    0.60325    0.30222   1.00
O2       0.15761    0.67185    0.29784   1.00
C3       0.09482    0.48803    0.29171   1.00
H1       0.10188    0.45297    0.28229   1.00
C3a      0.07581    0.57559    0.31701   1.00
H1       0.06673    0.60997    0.32613   1.00
C3b      0.04178    0.46072    0.30600   1.00
C4       0.03181    0.50454    0.31877   1.00
O_3      -0.10287   0.47105    0.30758   1.00
C5       0.21599    0.70957    0.31000   1.00
H2       0.20283    0.70216    0.32648   1.00
C5       0.24527    0.78481    0.30451   1.00
H2       0.25496    0.69432    0.30698   1.00
H2       0.21491    0.80412    0.31247   1.00
H2       0.23685    0.78738    0.28796   1.00
C5       0.32158    0.82897    0.30978   1.00
H2       0.32976    0.82158    0.32598   1.00
H2       0.33954    0.88397    0.30717   1.00
H2       0.35372    0.81582    0.30000   1.00
C5       -0.10633   0.54489    0.28280   1.00
H2       -0.16283   0.51648    0.28111   1.00
H2       -0.08621   0.51906    0.27291   1.00
C5       -0.07622   0.61981    0.27630   1.00
H2       -0.09573   0.62238    0.26105   1.00
C5       0.38531    1.05345    0.40844   1.00
H2       0.42991    1.06274    0.41781   1.00
H2       0.34761    0.99831    0.41010   1.00
C5       0.35539    1.09714    0.41657   1.00
H2       0.32176    1.07218    0.42989   1.00
H2       0.32532    1.10442    0.40448   1.00
O_3      0.40193    1.00964    0.30452   1.00
C4       0.49982    1.02310    0.33326   1.00
C3c      0.46895    1.01522    0.35231   1.00
H1       0.42488    0.96696    0.35630   1.00
C3d      0.55779    1.08609    0.32848   1.00
C3       0.49359    1.06933    0.36634   1.00
O2       0.46605    1.05539    0.38554   1.00
C3       0.58166    1.14046    0.34226   1.00
H1       0.62478    1.18853    0.33763   1.00
C2       0.55059    1.13359    0.36150   1.00
C5       0.43073    1.05583    0.28821   1.00
H2       0.41762    1.02951    0.27322   1.00
H2       0.48742    1.08605    0.28950   1.00
C5       0.40234    1.10403    0.28896   1.00
H2       0.41377    1.12891    0.30415   1.00
H2       0.34579    1.07339    0.28747   1.00
C5       0.43302    1.15774    0.27210   1.00
H2       0.42221    1.13323    0.25689   1.00
H2       0.48922    1.18991    0.27398   1.00
H2       0.41055    1.19156    0.27261   1.00
C5       0.63591    1.07700    0.30889   1.00
C5       0.41166    1.06908    0.38660   1.00
H2       0.61212    1.02133    0.31178   1.00
H2       0.67704    1.10491    0.32031   1.00
H2       0.37046    1.03564    0.37579   1.00
H2       0.42788    1.12315    0.38266   1.00
H2       0.39660    1.14810    0.42192   1.00
H2       0.67260    0.99895    0.28236   1.00
H2       0.74541    1.06585    0.29583   1.00
C2       0.42273    0.86300    0.28909   1.00
C3       0.46907    0.86662    0.30404   1.00
O2       0.50286    0.83050    0.30174   1.00
C3       0.40028    0.91113    0.28977   1.00
H1       0.36348    0.90866    0.27887   1.00
C3a      0.49304    0.91862    0.31882   1.00
H1       0.53144    0.92307    0.32945   1.00
C3b      0.42587    0.96409    0.30409   1.00
C4       0.47274    0.96826    0.31875   1.00
O_3      0.58690    1.09809    0.30938   1.00
C5       0.47247    0.77151    0.31398   1.00
H2       0.47390    0.78481    0.33035   1.00
C5       0.51337    0.73510    0.31085   1.00
H2       0.41839    0.73688    0.30948   1.00
H2       0.56053    0.76124    0.32022   1.00
H2       0.53015    0.74255    0.29471   1.00
C5       0.47243    0.65853    0.31610   1.00
H2       0.45155    0.65187    0.33171   1.00
H2       0.50548    0.63514    0.31528   1.00
H2       0.42973    0.62998    0.30513   1.00
C5       0.66736    1.09232    0.28778   1.00
H2       0.70092    1.14853    0.28626   1.00
H2       0.62555    1.07653    0.27647   1.00
C5       0.70744    1.05518    0.28362   1.00
H2       0.73542    1.07300    0.26902   1.00
C5       0.66707    0.61413    0.40863   1.00
H2       0.63176    0.56935    0.41793   1.00
H2       0.64940    0.65165    0.41030   1.00
C5       0.74061    0.64420    0.41683   1.00
H2       0.74899    0.67762    0.43017   1.00
H2       0.77806    0.67452    0.40478   1.00
O_3      0.60782    0.59858    0.30465   1.00
C4       0.52329    0.50018    0.33326   1.00
C3c      0.54596    0.53084    0.35235   1.00
H1       0.54153    0.57475    0.35637   1.00
C3d      0.52862    0.44241    0.32844   1.00
C3       0.57544    0.50621    0.36638   1.00
O2       0.58873    0.53351    0.38561   1.00
C3       0.55914    0.41856    0.34222   1.00
H1       0.56433    0.37561    0.33756   1.00
C2       0.58302    0.44942    0.36150   1.00
C5       0.62558    0.57012    0.28833   1.00
H2       0.61246    0.58333    0.27334   1.00
H2       0.59927    0.51342    0.28956   1.00
C5       0.70219    0.59877    0.28915   1.00
H2       0.71554    0.58724    0.30434   1.00
H2       0.72793    0.65533    0.28772   1.00
C5       0.72561    0.56847    0.27229   1.00
H2       0.71201    0.57938    0.25708   1.00
H2       0.70175    0.51227    0.27411   1.00
H2       0.78191    0.59112    0.27286   1.00
C5       0.44181    0.36433    0.30873   1.00
C5       0.65670    0.58806    0.38676   1.00
H2       0.40971    0.38789    0.31161   1.00
H2       0.42859    0.32309    0.32011   1.00
H2       0.66443    0.62934    0.37599   1.00
H2       0.69474    0.57209    0.38283   1.00
H2       0.75048    0.60305    0.42215   1.00
H2       0.32730    0.32756    0.28209   1.00
H2       0.32153    0.25472    0.29550   1.00
C2       0.44030    0.57730    0.28909   1.00
C3       0.39751    0.53069    0.30397   1.00
O2       0.32762    0.49669    0.30160   1.00
C3       0.51093    0.59999    0.28984   1.00
H1       0.54530    0.63700    0.27898   1.00
C3a      0.42552    0.50670    0.31876   1.00
H1       0.39154    0.46810    0.32933   1.00
C3b      0.53828    0.57439    0.30416   1.00
C4       0.49553    0.52726    0.31875   1.00
O_3      0.51184    0.41353    0.30930   1.00
C5       0.29868    0.52674    0.31385   1.00
H2       0.31039    0.52516    0.33023   1.00
C5       0.22143    0.48564    0.31064   1.00
H2       0.31800    0.58085    0.30941   1.00
H2       0.20045    0.43837    0.31995   1.00
H2       0.21234    0.46906    0.29448   1.00
C5       0.18547    0.52627    0.31589   1.00
H2       0.19945    0.54697    0.33153   1.00
H2       0.12907    0.49306    0.31501   1.00
H2       0.19961    0.56908    0.30496   1.00
C5       0.42604    0.33315    0.28759   1.00
H2       0.44889    0.29978    0.28605   1.00
H2       0.45205    0.37511    0.27633   1.00
C5       0.34886    0.29287    0.28334   1.00
H2       0.33898    0.26509    0.26871   1.00
C5       0.31001    0.37602    0.24563   1.00
H2       0.35936    0.42207    0.24185   1.00
H2       0.31802    0.33193    0.24334   1.00
C5       0.29169    0.37980    0.26803   1.00
H2       0.31933    0.36308    0.27840   1.00
H2       0.23583    0.34662    0.27041   1.00
O_3      0.05695    0.24859    0.17161   1.00
C4       0.19121    0.35699    0.16641   1.00
C3c      0.22785    0.35503    0.18333   1.00
H1       0.23482    0.31162    0.18559   1.00
C3d      0.18355    0.41447    0.16359   1.00
C3       0.25513    0.40819    0.19770   1.00
O2       0.29731    0.40666    0.21247   1.00
C3       0.20953    0.46688    0.17808   1.00
H1       0.20030    0.50880    0.17565   1.00
C2       0.24607    0.46537    0.19539   1.00
C5       0.00751    0.26577    0.16568   1.00
H2       -0.02889   0.22938    0.15429   1.00
H2       0.03197    0.31810    0.15906   1.00
C5       -0.03232   0.26343    0.18450   1.00
H2       0.00427    0.29835    0.19610   1.00
H2       -0.05704   0.21081    0.19087   1.00
C5       -0.08582   0.28391    0.17952   1.00
H2       -0.12225   0.24954    0.16784   1.00
H2       -0.06100   0.33729    0.17382   1.00
H2       -0.11542   0.28045    0.19337   1.00
C5       0.18377    0.44334    0.13043   1.00
C5       0.25898    0.37416    0.23005   1.00
H2       0.20424    0.41039    0.12519   1.00
H2       0.22734    0.49590    0.13304   1.00
H2       0.21979    0.32033    0.22653   1.00
H2       0.23161    0.39991    0.23623   1.00
H2       0.30722    0.43327    0.27248   1.00
H2       0.17288    0.41037    0.08778   1.00
H2       0.22281    0.50151    0.09258   1.00
C2       0.10051    0.19355    0.12343   1.00
C3       0.16910    0.24549    0.12110   1.00
O2       0.20212    0.25406    0.10282   1.00
C3       0.06428    0.19531    0.14069   1.00
H1       0.01226    0.15535    0.14319   1.00
C3a      0.19909    0.29834    0.13558   1.00
H1       0.25038    0.33979    0.13297   1.00
C3b      0.09355    0.24910    0.15472   1.00
C4       0.16141    0.30126    0.15221   1.00
O_3      0.14360    0.41656    0.14804   1.00
C5       0.24574    0.22642    0.10385   1.00
H2       0.28499    0.25161    0.11597   1.00
C5       0.28112    0.23893    0.08323   1.00
H2       0.21631    0.17056    0.10694   1.00
H2       0.32373    0.29269    0.08271   1.00
H2       0.24374    0.23420    0.07144   1.00
C5       0.30756    0.18930    0.07884   1.00
H2       0.34050    0.19077    0.09155   1.00
H2       0.33786    0.20357    0.06456   1.00
H2       0.26456    0.13594    0.07674   1.00
C5       0.13814    0.44585    0.11390   1.00
H2       0.12733    0.48753    0.11757   1.00
H2       0.08844    0.39719    0.11435   1.00
C5       0.17052    0.45629    0.09272   1.00
H2       0.13933    0.46498    0.08139   1.00
C5       0.38763    0.57921    0.16974   1.00
H2       0.39692    0.56500    0.18504   1.00
H2       0.40327    0.55233    0.15878   1.00
C5       0.31088    0.55508    0.16731   1.00
H2       0.28157    0.49997    0.16330   1.00
H2       0.30355    0.58508    0.15520   1.00
O_3      0.63277    0.89176    0.13011   1.00
C4       0.64394    0.83413    0.16672   1.00
C3c      0.59117    0.76584    0.16640   1.00
H1       0.59145    0.73147    0.15507   1.00
C3d      0.64313    0.87783    0.18180   1.00
C3       0.53696    0.74105    0.18040   1.00
O2       0.49179    0.67196    0.18072   1.00
C3       0.58855    0.85363    0.19551   1.00
H1       0.58888    0.88964    0.20634   1.00
C2       0.53439    0.78491    0.19526   1.00
C5       0.64532    0.95901    0.13257   1.00
H2       0.68603    0.99565    0.12217   1.00
H2       0.66084    0.97709    0.14846   1.00
C5       0.57959    0.95873    0.12772   1.00
H2       0.53844    0.92071    0.13771   1.00
H2       0.56493    0.94122    0.11176   1.00
C5       0.58807    1.02973    0.13072   1.00
H2       0.62941    1.06805    0.12089   1.00
H2       0.60038    1.04626    0.14681   1.00
H2       0.53998    1.02887    0.12667   1.00
C5       0.74870    0.95746    0.19302   1.00
C5       0.43531    0.65638    0.16812   1.00
H2       0.77339    0.93058    0.18601   1.00
H2       0.73517    0.93982    0.20903   1.00
H2       0.45248    0.67099    0.15212   1.00
H2       0.40808    0.68404    0.17275   1.00
H2       0.28858    0.56072    0.18182   1.00
H2       0.89512    1.03255    0.18832   1.00
H2       0.86844    1.02549    0.21464   1.00
C2       0.80601    0.91445    0.12318   1.00
C3       0.81120    0.88252    0.14094   1.00
O2       0.87349    0.89152    0.14700   1.00
C3       0.74510    0.91602    0.11978   1.00
H1       0.73882    0.93851    0.10608   1.00
C3a      0.75691    0.85480    0.15500   1.00
H1       0.76324    0.83402    0.16906   1.00
C3b      0.69211    0.89036    0.13409   1.00
C4       0.69777    0.85957    0.15189   1.00
O_3      0.69103    0.94666    0.18183   1.00
C5       0.87846    0.83358    0.14199   1.00
H2       0.83741    0.78679    0.14950   1.00
C5       0.94811    0.84703    0.14948   1.00
H2       0.87483    0.82512    0.12528   1.00
H2       0.94468    0.83699    0.16609   1.00
H2       0.98482    0.90246    0.14744   1.00
C5       0.97326    0.80389    0.13830   1.00
H2       0.93362    0.74909    0.13913   1.00
H2       1.02107    0.81078    0.14528   1.00
H2       0.98527    0.81957    0.12205   1.00
C5       0.79927    1.03374    0.19295   1.00
H2       0.77922    1.05930    0.20298   1.00
H2       0.80148    1.05333    0.17731   1.00
C5       0.87086    1.04997    0.19979   1.00
H2       0.90439    1.10594    0.20159   1.00
C5       0.39650    0.76557    0.16310   1.00
H2       0.42069    0.79493    0.17713   1.00
H2       0.42201    0.80143    0.15032   1.00
C5       0.40856    0.70420    0.16164   1.00
H2       0.46023    0.72038    0.15548   1.00
H2       0.36957    0.66424    0.15159   1.00
O_3      0.08492    0.73038    0.13413   1.00
C4       0.16603    0.80992    0.16671   1.00
C3c      0.22975    0.81449    0.16415   1.00
H1       0.26054    0.84049    0.15104   1.00
C3d      0.12714    0.77668    0.18404   1.00
C3       0.25432    0.78500    0.17819   1.00
O2       0.32043    0.79868    0.17601   1.00
C3       0.15088    0.74613    0.19785   1.00
H1       0.11821    0.71911    0.21053   1.00
C2       0.21487    0.74964    0.19538   1.00
C5       0.01692    0.68478    0.13993   1.00
H2       -0.02056   0.69089    0.13050   1.00
H2       0.00819    0.69219    0.15616   1.00
C5       0.00427    0.61278    0.13708   1.00
H2       0.04294    0.60726    0.14605   1.00
H2       0.01250    0.60574    0.12080   1.00
C5       -0.06808   0.55973    0.14375   1.00
H2       -0.10696   0.56525    0.13496   1.00
H2       -0.07558   0.56520    0.16018   1.00
H2       -0.07688   0.50743    0.14114   1.00
C5       0.06531    0.82311    0.19641   1.00
C5       0.32159    0.74679    0.16438   1.00
H2       0.09423    0.87035    0.18726   1.00
H2       0.08982    0.83149    0.21163   1.00
H2       0.30088    0.74500    0.14890   1.00
H2       0.29025    0.69509    0.17130   1.00
H2       0.40626    0.68177    0.17693   1.00
H2       0.00687    0.91013    0.19160   1.00
H2       0.02321    0.89959    0.21797   1.00
C2       0.08516    0.89182    0.12340   1.00
C3       0.12868    0.93372    0.13899   1.00
O2       0.13215    0.99480    0.14361   1.00
C3       0.07205    0.82396    0.12194   1.00
H1       0.04038    0.79113    0.10987   1.00
C3a      0.15637    0.90678    0.15293   1.00
H1       0.18642    0.93830    0.16546   1.00
C3b      0.09789    0.79668    0.13621   1.00
C4       0.14029    0.83807    0.15189   1.00
O_3      0.06192    0.76630    0.18648   1.00
C5       0.19181    1.04964    0.13529   1.00
H2       0.23855    1.05097    0.14132   1.00
C5       0.19245    1.11521    0.14136   1.00
H2       0.19185    1.04595    0.11843   1.00
H2       0.21083    1.12785    0.15729   1.00
H2       0.13861    1.10397    0.14134   1.00
C5       0.23659    1.17564    0.12717   1.00
H2       0.28871    1.18268    0.12612   1.00
H2       0.24044    1.22357    0.13302   1.00
H2       0.21379    1.16728    0.11166   1.00
C5       -0.00743   0.80888    0.19910   1.00
H2       -0.03270   0.76909    0.21101   1.00
H2       -0.03564   0.78683    0.18468   1.00
C5       -0.00974   0.87376    0.20462   1.00
H2       -0.06276   0.86031    0.20852   1.00
C5       1.02580    0.58462    0.58141   1.00
H2       1.06489    0.63934    0.58298   1.00
H2       0.97574    0.58254    0.58162   1.00
C5       1.03602    0.55713    0.56101   1.00
H2       1.01272    0.57080    0.54830   1.00
H2       1.01225    0.50065    0.56170   1.00
O_3      0.93512    0.38259    0.66814   1.00
C4       1.02355    0.52466    0.66690   1.00
C3c      1.01501    0.54563    0.64761   1.00
H1       0.96634    0.54022    0.64347   1.00
C3d      1.08766    0.53306    0.67210   1.00
C3       1.06838    0.57287    0.63331   1.00
O2       1.05888    0.59989    0.61574   1.00
C3       1.14051    0.55895    0.65776   1.00
H1       1.18801    0.56221    0.66218   1.00
C2       1.13251    0.57973    0.63811   1.00
C5       0.96410    0.34798    0.67813   1.00
H2       0.93129    0.31517    0.69074   1.00
H2       1.01522    0.38464    0.68451   1.00
C5       0.97201    0.30284    0.66260   1.00
H2       1.00320    0.33536    0.64972   1.00
H2       0.92060    0.26604    0.65647   1.00
C5       1.00556    0.26500    0.67206   1.00
H2       0.97493    0.23279    0.68502   1.00
H2       1.05783    0.30168    0.67755   1.00
H2       1.00954    0.23114    0.66060   1.00
C5       1.11599    0.55889    0.70541   1.00
C5       1.03345    0.54977    0.60032   1.00
H2       1.07510    0.57165    0.70795   1.00
H2       1.16405    0.60656    0.70139   1.00
H2       0.98296    0.50606    0.60488   1.00
H2       1.06809    0.52895    0.59714   1.00
H2       1.09137    0.58013    0.55726   1.00
H2       1.07841    0.56642    0.74680   1.00
H2       1.16737    0.62715    0.74142   1.00
C2       0.86106    0.43441    0.71020   1.00
C3       0.90252    0.50602    0.70913   1.00
O2       0.90294    0.54649    0.72484   1.00
C3       0.87251    0.39418    0.69606   1.00
H1       0.84052    0.33934    0.69613   1.00
C3a      0.95498    0.53542    0.69452   1.00
H1       0.98875    0.59005    0.69465   1.00
C3b      0.92610    0.42346    0.68197   1.00
C4       0.96794    0.49458    0.68113   1.00
O_3      1.09720    0.50851    0.69030   1.00
C5       0.86337    0.57655    0.71972   1.00
H2       0.88341    0.60878    0.70582   1.00
C5       0.86736    0.62128    0.73767   1.00
H2       0.80916    0.53687    0.71704   1.00
H2       0.91664    0.67020    0.73681   1.00
H2       0.86926    0.59519    0.75178   1.00
C5       0.80704    0.63478    0.73840   1.00
H2       0.80265    0.65582    0.72361   1.00
H2       0.81465    0.67197    0.75059   1.00
H2       0.75804    0.58712    0.74186   1.00
C5       1.12715    0.53017    0.72500   1.00
H2       1.17532    0.52854    0.72357   1.00
H2       1.08496    0.47647    0.72662   1.00
C5       1.12948    0.57221    0.74365   1.00
H2       1.14471    0.55421    0.75729   1.00
C5       0.58290    -0.03348   0.58434   1.00
H2       0.59208    -0.07656   0.58719   1.00
H2       0.63349    0.01356    0.58561   1.00
C5       0.55347    -0.03990   0.56275   1.00
H2       0.59490    -0.01984   0.55120   1.00
H2       0.52580    -0.01092   0.56174   1.00
O_3      0.46163    0.07605    0.66452   1.00
C4       0.50099    -0.02361   0.66692   1.00
C3c      0.53589    -0.01826   0.64879   1.00
H1       0.58338    0.02785    0.64558   1.00
C3d      0.43970    -0.08451   0.67095   1.00
C3       0.50989    -0.07151   0.63445   1.00
O2       0.55082    -0.06599   0.61829   1.00
C3       0.41301    -0.13711   0.65653   1.00
H1       0.36463    -0.18188   0.65996   1.00
C2       0.44727    -0.13225   0.63802   1.00
C5       0.39571    0.05317    0.67240   1.00
H2       0.39551    0.08785    0.68437   1.00
H2       0.37390    0.00104    0.67903   1.00
C5       0.35072    0.05106    0.65500   1.00
H2       0.35244    0.01792    0.64279   1.00
H2       0.37261    0.10347    0.64862   1.00
C5       0.27717    0.02428    0.66213   1.00
H2       0.27513    0.05686    0.67442   1.00
H2       0.25446    -0.02893   0.66785   1.00
H2       0.24540    0.02452    0.64931   1.00
C5       0.42275    -0.11385   0.70442   1.00
C5       0.53619    -0.03633   0.60157   1.00
H2       0.47671    -0.07712   0.70838   1.00
H2       0.41784    -0.16450   0.70122   1.00
H2       0.54713    0.01612    0.60550   1.00
H2       0.48153    -0.06626   0.59678   1.00
H2       0.51793    -0.09442   0.55868   1.00
H2       0.45536    -0.07932   0.74669   1.00
H2       0.42008    -0.16978   0.74172   1.00
C2       0.57346    0.13940    0.71004   1.00
C3       0.59671    0.09207    0.71089   1.00
O2       0.62857    0.08695    0.72809   1.00
C3       0.52882    0.13340    0.69414   1.00
H1       0.51150    0.16986    0.69276   1.00
C3a      0.57378    0.03941    0.69634   1.00
H1       0.58896    0.00131    0.69788   1.00
C3b      0.50441    0.07970    0.68008   1.00
C4       0.52673    0.03207    0.68113   1.00
O_3      0.40079    -0.09037   0.68783   1.00
C5       0.69976    0.12032    0.72511   1.00
H2       0.71327    0.09763    0.71212   1.00
C5       0.73108    0.11137    0.74462   1.00
H2       0.72078    0.17572    0.72210   1.00
H2       0.72499    0.05944    0.74458   1.00
H2       0.70014    0.11281    0.75755   1.00
C5       0.80672    0.16615    0.74726   1.00
H2       0.83582    0.16764    0.73351   1.00
H2       0.82918    0.15468    0.76067   1.00
H2       0.81282    0.21769    0.74992   1.00
C5       0.37783    -0.12070   0.72247   1.00
H2       0.32618    -0.16555   0.71989   1.00
H2       0.37175    -0.07484   0.72292   1.00
C5       0.40814    -0.12777   0.74262   1.00
H2       0.37088    -0.13976   0.75510   1.00
C5       0.38476    0.41791    0.58422   1.00
H2       0.33239    0.40848    0.58702   1.00
H2       0.38141    0.36740    0.58545   1.00
C5       0.40795    0.44764    0.56266   1.00
H2       0.38686    0.40636    0.55107   1.00
H2       0.46461    0.47551    0.56171   1.00
O_3      0.61457    0.53891    0.66464   1.00
C4       0.47539    0.49901    0.66692   1.00
C3c      0.44614    0.46428    0.64874   1.00
H1       0.44501    0.41693    0.64549   1.00
C3d      0.47547    0.56012    0.67100   1.00
C3       0.41889    0.49029    0.63441   1.00
O2       0.38377    0.44949    0.61819   1.00
C3       0.44956    0.58682    0.65658   1.00
H1       0.45292    0.63506    0.66005   1.00
C2       0.42046    0.55273    0.63802   1.00
C5       0.65731    0.60477    0.67261   1.00
H2       0.69213    0.60497    0.68460   1.00
H2       0.62676    0.62632    0.67923   1.00
C5       0.70031    0.65007    0.65527   1.00
H2       0.66552    0.64835    0.64304   1.00
H2       0.73106    0.62844    0.64890   1.00
C5       0.74677    0.72357    0.66248   1.00
H2       0.78131    0.72561    0.67480   1.00
H2       0.71604    0.74603    0.66820   1.00
H2       0.77886    0.75557    0.64971   1.00
C5       0.46258    0.57656    0.70447   1.00
C5       0.42830    0.46449    0.60151   1.00
H2       0.44549    0.52259    0.70838   1.00
H2       0.41675    0.58129    0.70125   1.00
H2       0.46990    0.45371    0.60547   1.00
H2       0.45290    0.51919    0.59678   1.00
H2       0.38882    0.48308    0.55861   1.00
H2       0.46413    0.54350    0.74671   1.00
H2       0.40875    0.57853    0.74174   1.00
C2       0.56592    0.42655    0.71005   1.00
C3       0.49528    0.40304    0.71083   1.00
O2       0.45815    0.37087    0.72798   1.00
C3       0.60464    0.47145    0.69420   1.00
H1       0.65847    0.48898    0.69288   1.00
C3a      0.46556    0.42596    0.69628   1.00
H1       0.41221    0.41057    0.69777   1.00
C3b      0.57535    0.49586    0.68015   1.00
C4       0.50534    0.47327    0.68113   1.00
O_3      0.50822    0.59887    0.68793   1.00
C5       0.42059    0.29970    0.72492   1.00
H2       0.38453    0.28623    0.71190   1.00
C5       0.38014    0.26804    0.74438   1.00
H2       0.45517    0.27892    0.72192   1.00
H2       0.33418    0.27391    0.74431   1.00
H2       0.41230    0.29888    0.75735   1.00
C5       0.35953    0.19243    0.74694   1.00
H2       0.33215    0.16345    0.73315   1.00
H2       0.32547    0.16972    0.76031   1.00
H2       0.40506    0.18651    0.74963   1.00
C5       0.50032    0.62132    0.72258   1.00
H2       0.50694    0.67292    0.72005   1.00
H2       0.55234    0.62760    0.72307   1.00
C5       0.46274    0.59066    0.74268   1.00
H2       0.48776    0.62779    0.75521   1.00
C5       0.29209    -0.31275   0.17702   1.00
H2       0.25322    -0.31495   0.16630   1.00
H2       0.27463    -0.30816   0.19239   1.00
C5       0.29543    -0.37919   0.17535   1.00
H2       0.25382    -0.42092   0.18431   1.00
H2       0.34546    -0.37042   0.18105   1.00
O_3      0.58935    -0.00042   0.18990   1.00
C4       0.47563    -0.02288   0.16668   1.00
C3c      0.42291    -0.08822   0.17201   1.00
H1       0.40324    -0.09795   0.18733   1.00
C3d      0.49987    -0.01102   0.14656   1.00
C3       0.39546    -0.14207   0.15787   1.00
O2       0.33856    -0.20213   0.16347   1.00
C3       0.47355    -0.06485   0.13255   1.00
H1       0.49541    -0.05392   0.11750   1.00
C2       0.42074    -0.13143   0.13775   1.00
C5       0.65103    0.03358    0.17890   1.00
H2       0.68999    0.08072    0.18673   1.00
H2       0.64252    0.04800    0.16345   1.00
C5       0.67869    -0.01499   0.17692   1.00
H2       0.63899    -0.06288   0.16961   1.00
H2       0.68759    -0.02854   0.19243   1.00
C5       0.74477    0.01719    0.16448   1.00
H2       0.78448    0.06528    0.17162   1.00
H2       0.73543    0.02855    0.14877   1.00
H2       0.76502    -0.01848   0.16358   1.00
C5       0.53206    0.09570    0.13488   1.00
C5       0.35829    -0.24743   0.17163   1.00
H2       0.50621    0.10613    0.14757   1.00
H2       0.49606    0.07478    0.12181   1.00
H2       0.39000    -0.22489   0.18549   1.00
H2       0.38907    -0.25888   0.16071   1.00
H2       0.28827    -0.39766   0.15932   1.00
H2       0.56854    0.23570    0.14214   1.00
H2       0.53333    0.20615    0.11696   1.00
C2       0.56641    0.14085    0.20956   1.00
C3       0.50723    0.12830    0.19886   1.00
O2       0.48795    0.17722    0.19813   1.00
C3       0.59239    0.09625    0.20647   1.00
H1       0.63657    0.10341    0.21481   1.00
C3a      0.47672    0.07329    0.18510   1.00
H1       0.43377    0.06670    0.17618   1.00
C3b      0.56323    0.04292    0.19229   1.00
C4       0.50503    0.03114    0.18144   1.00
O_3      0.55513    0.05092    0.14094   1.00
C5       0.43375    0.16062    0.21173   1.00
H2       0.38846    0.11016    0.20797   1.00
C5       0.41470    0.21640    0.20977   1.00
H2       0.44945    0.15898    0.22765   1.00
H2       0.38240    0.20580    0.19601   1.00
H2       0.46266    0.26539    0.20691   1.00
C5       0.37777    0.22216    0.22867   1.00
H2       0.33307    0.17149    0.23223   1.00
H2       0.35971    0.25910    0.22601   1.00
H2       0.41258    0.24126    0.24209   1.00
C5       0.59426    0.16247    0.12849   1.00
H2       0.61307    0.15429    0.11374   1.00
H2       0.63543    0.17547    0.13984   1.00
C5       0.57834    0.22093    0.12689   1.00
H2       0.62256    0.26674    0.12019   1.00
C5       1.06922    0.37204    0.09710   1.00
H2       1.07376    0.41144    0.08619   1.00
H2       1.01559    0.32975    0.09602   1.00
C5       1.11890    0.34689    0.09096   1.00
H2       1.09670    0.30818    0.07864   1.00
H2       1.13009    0.32391    0.10429   1.00
O_3      1.02031    0.41684    0.19892   1.00
C4       1.02302    0.49975    0.16671   1.00
C3c      1.01853    0.46377    0.14889   1.00
H1       0.97294    0.41562    0.14586   1.00
C3d      1.08248    0.56286    0.17023   1.00
C3       1.07274    0.48856    0.13489   1.00
O2       1.06147    0.45488    0.11668   1.00
C3       1.13706    0.58706    0.15651   1.00
H1       1.18256    0.63451    0.16021   1.00
C2       1.13366    0.55096    0.13852   1.00
C5       1.06546    0.45468    0.21476   1.00
H2       1.03917    0.44430    0.22972   1.00
H2       1.09057    0.51057    0.21174   1.00
C5       1.11967    0.43398    0.21596   1.00
H2       1.14464    0.44255    0.20084   1.00
H2       1.09410    0.37824    0.21916   1.00
C5       1.17251    0.47466    0.23239   1.00
H2       1.14786    0.46671    0.24751   1.00
H2       1.19974    0.53013    0.22883   1.00
H2       1.21085    0.45777    0.23335   1.00
C5       1.06344    0.64081    0.18643   1.00
C5       1.08240    0.40571    0.11801   1.00
H2       1.00760    0.61096    0.18356   1.00
H2       1.08803    0.67859    0.17392   1.00
H2       1.05198    0.36699    0.12982   1.00
H2       1.13744    0.42870    0.12220   1.00
H2       1.16775    0.38959    0.08486   1.00
H2       0.97659    0.67420    0.21000   1.00
H2       1.03852    0.74545    0.19486   1.00
C2       0.86312    0.42337    0.21094   1.00
C3       0.86151    0.46184    0.19432   1.00
O2       0.81938    0.48956    0.19465   1.00
C3       0.91655    0.40820    0.21197   1.00
H1       0.91825    0.37738    0.22422   1.00
C3a      0.91357    0.48551    0.17956   1.00
H1       0.91376    0.51814    0.16756   1.00
C3b      0.96942    0.43364    0.19762   1.00
C4       0.96833    0.47275    0.18127   1.00
O_3      1.09153    0.59774    0.18825   1.00
C5       0.76090    0.45004    0.18269   1.00
H2       0.77487    0.44752    0.16660   1.00
C5       0.71761    0.48459    0.18356   1.00
H2       0.73081    0.39710    0.18873   1.00
H2       0.73960    0.52843    0.17283   1.00
H2       0.72335    0.50647    0.19905   1.00
C5       0.64180    0.43547    0.17869   1.00
H2       0.63739    0.41006    0.16389   1.00
H2       0.61319    0.46356    0.17779   1.00
H2       0.61672    0.39601    0.19079   1.00
C5       1.07569    0.67893    0.20640   1.00
H2       1.13094    0.71747    0.20753   1.00
H2       1.06395    0.64198    0.21903   1.00
C5       1.03172    0.71299    0.20832   1.00
H2       1.04706    0.74602    0.22201   1.00
C5       0.61384    0.66652    0.09128   1.00
H2       0.56898    0.63122    0.08200   1.00
H2       0.65127    0.64874    0.08960   1.00
C5       0.64399    0.74002    0.08304   1.00
H2       0.67731    0.74825    0.06968   1.00
H2       0.67443    0.77752    0.09506   1.00
O_3      0.59884    0.60787    0.19528   1.00
C4       0.50017    0.52329    0.16674   1.00
C3c      0.53073    0.54580    0.14763   1.00
H1       0.57456    0.54125    0.14360   1.00
C3d      0.44252    0.52878    0.17158   1.00
C3       0.50611    0.57528    0.13360   1.00
O2       0.53328    0.58841    0.11436   1.00
C3       0.41867    0.55930    0.15780   1.00
H1       0.37581    0.56463    0.16247   1.00
C2       0.44943    0.58303    0.13850   1.00
C5       0.57055    0.62581    0.21161   1.00
H2       0.58382    0.61274    0.22659   1.00
H2       0.51385    0.59959    0.21041   1.00
C5       0.59933    0.70244    0.21075   1.00
H2       0.58774    0.71574    0.19556   1.00
H2       0.65589    0.72809    0.21215   1.00
C5       0.56922    0.72605    0.22762   1.00
H2       0.58019    0.71251    0.24282   1.00
H2       0.51302    0.70228    0.22582   1.00
H2       0.59197    0.78236    0.22702   1.00
C5       0.36446    0.44217    0.19135   1.00
C5       0.58791    0.65633    0.11316   1.00
H2       0.38790    0.40997    0.18847   1.00
H2       0.32316    0.42895    0.17999   1.00
H2       0.62924    0.66404    0.12392   1.00
H2       0.57207    0.69447    0.11708   1.00
H2       0.60287    0.74997    0.07773   1.00
H2       0.32764    0.32777    0.21805   1.00
H2       0.25478    0.32207    0.20466   1.00
C2       0.57731    0.44031    0.21091   1.00
C3       0.53056    0.39749    0.19606   1.00
O2       0.49646    0.32761    0.19847   1.00
C3       0.60013    0.51096    0.21013   1.00
H1       0.63724    0.54535    0.22096   1.00
C3a      0.50657    0.42549    0.18127   1.00
H1       0.46788    0.39149    0.17073   1.00
C3b      0.57453    0.53831    0.19581   1.00
C4       0.52726    0.49553    0.18125   1.00
O_3      0.41375    0.51216    0.19074   1.00
C5       0.52634    0.29849    0.18622   1.00
H2       0.52469    0.31012    0.16984   1.00
C5       0.48514    0.22127    0.18947   1.00
H2       0.58046    0.31774    0.19063   1.00
H2       0.43782    0.20031    0.18019   1.00
H2       0.46865    0.21231    0.20564   1.00
C5       0.52561    0.18515    0.18422   1.00
H2       0.54622    0.19901    0.16857   1.00
H2       0.49232    0.12876    0.18513   1.00
H2       0.56847    0.19927    0.19512   1.00
C5       0.33341    0.42657    0.21251   1.00
H2       0.30013    0.44954    0.21405   1.00
H2       0.37545    0.45260    0.22375   1.00
C5       0.29303    0.34943    0.21680   1.00
H2       0.26535    0.33968    0.23144   1.00
C5       0.35185    0.64014    0.65583   1.00
H2       0.34726    0.59839    0.66573   1.00
H2       0.35515    0.62466    0.64008   1.00
C5       0.28784    0.64743    0.65835   1.00
H2       0.24484    0.60885    0.64901   1.00
H2       0.29948    0.69934    0.65362   1.00
O_3      0.67266    0.92862    0.64562   1.00
C4       0.64375    0.80892    0.66665   1.00
C3c      0.57722    0.75974    0.66098   1.00
H1       0.56655    0.74287    0.64539   1.00
C3d      0.65678    0.82950    0.68710   1.00
C3       0.52344    0.73235    0.67514   1.00
O2       0.46176    0.67859    0.66905   1.00
C3       0.60309    0.80329    0.70116   1.00
H1       0.61506    0.82238    0.71652   1.00
C2       0.53536    0.75407    0.69564   1.00
C5       0.70945    0.98795    0.65750   1.00
H2       0.75749    1.02648    0.64996   1.00
H2       0.72287    0.97553    0.67258   1.00
C5       0.66425    1.01908    0.66064   1.00
H2       0.61545    0.97994    0.66765   1.00
H2       0.65171    1.03186    0.64550   1.00
C5       0.69958    1.08279    0.67407   1.00
H2       0.74859    1.12191    0.66723   1.00
H2       0.70999    1.06967    0.68942   1.00
H2       0.66639    1.10568    0.67582   1.00
C5       0.76201    0.85385    0.69820   1.00
C5       0.41920    0.70317    0.66186   1.00
H2       0.77043    0.82889    0.68486   1.00
H2       0.73951    0.81578    0.71072   1.00
H2       0.44299    0.73685    0.64842   1.00
H2       0.41011    0.73358    0.67354   1.00
H2       0.26954    0.63834    0.67441   1.00
H2       0.89966    0.88392    0.69008   1.00
H2       0.86888    0.84504    0.71481   1.00
C2       0.80774    0.89973    0.62385   1.00
C3       0.79186    0.83774    0.63342   1.00
O2       0.83793    0.81473    0.63318   1.00
C3       0.76627    0.92868    0.62801   1.00
H1       0.77600    0.97516    0.62054   1.00
C3a      0.73676    0.80734    0.64716   1.00
H1       0.72768    0.76198    0.65523   1.00
C3b      0.71289    0.89948    0.64217   1.00
C4       0.69782    0.83842    0.65191   1.00
O_3      0.72017    0.88145    0.69316   1.00
C5       0.81842    0.76247    0.61865   1.00
H2       0.76677    0.71837    0.62204   1.00
C5       0.87113    0.73904    0.61955   1.00
H2       0.81782    0.78157    0.60311   1.00
H2       0.85885    0.70403    0.63272   1.00
H2       0.92155    0.78479    0.62284   1.00
C5       0.87433    0.70409    0.59983   1.00
H2       0.82250    0.66193    0.59593   1.00
H2       0.90890    0.68274    0.60167   1.00
H2       0.89500    0.74110    0.58695   1.00
C5       0.83051    0.91249    0.70510   1.00
H2       0.82382    0.92971    0.72032   1.00
H2       0.84568    0.95605    0.69449   1.00
C5       0.88602    0.89218    0.70568   1.00
H2       0.93312    0.93360    0.71276   1.00
C5       0.42891    0.60218    0.67332   1.00
H2       0.40785    0.63716    0.67308   1.00
H2       0.44473    0.60043    0.65749   1.00
C5       0.49121    0.63102    0.68770   1.00
H2       0.53783    0.67100    0.67995   1.00
H2       0.50027    0.58935    0.69280   1.00
O_3      0.19908    0.25323    0.67013   1.00
C4       0.16534    0.35672    0.66649   1.00
C3c      0.22731    0.41743    0.66338   1.00
H1       0.25652    0.42362    0.64978   1.00
C3d      0.12758    0.35008    0.68418   1.00
C3       0.25302    0.47049    0.67778   1.00
O2       0.30955    0.53143    0.67257   1.00
C3       0.15368    0.40227    0.69873   1.00
H1       0.12409    0.39389    0.71239   1.00
C2       0.21662    0.46370    0.69593   1.00
C5       0.16042    0.20480    0.68517   1.00
H2       0.13364    0.15172    0.67912   1.00
H2       0.12146    0.21549    0.69187   1.00
C5       0.20929    0.20955    0.70173   1.00
H2       0.23745    0.26307    0.70738   1.00
H2       0.24755    0.19817    0.69491   1.00
C5       0.17097    0.16005    0.71912   1.00
H2       0.14235    0.10656    0.71356   1.00
H2       0.13444    0.17286    0.72640   1.00
H2       0.20768    0.16317    0.73086   1.00
C5       0.01231    0.28925    0.67970   1.00
C5       0.36926    0.53251    0.67942   1.00
H2       0.01693    0.29247    0.66289   1.00
H2       0.00629    0.33246    0.68530   1.00
H2       0.37416    0.49086    0.67200   1.00
H2       0.36920    0.52512    0.69620   1.00
H2       0.48344    0.65600    0.70127   1.00
H2       -0.10560   0.19656    0.65614   1.00
H2       -0.12154   0.25209    0.67233   1.00
C2       0.08827    0.19058    0.62438   1.00
C3       0.07366    0.24380    0.62164   1.00
O2       0.02180    0.23528    0.60882   1.00
C3       0.13132    0.19550    0.64063   1.00
H1       0.14491    0.15649    0.64283   1.00
C3a      0.10053    0.29915    0.63532   1.00
H1       0.08572    0.33749    0.63370   1.00
C3b      0.15618    0.24950    0.65459   1.00
C4       0.14075    0.30183    0.65203   1.00
O_3      0.06893    0.28941    0.68869   1.00
C5       0.04894    0.26897    0.59025   1.00
H2       0.08398    0.32476    0.59258   1.00
C5       -0.01138   0.25814    0.57709   1.00
H2       0.07750    0.24738    0.58238   1.00
H2       -0.02777   0.29474    0.58206   1.00
H2       -0.05461   0.20612    0.58042   1.00
C5       0.00524    0.26627    0.55422   1.00
H2       0.05173    0.31633    0.55140   1.00
H2       -0.03774   0.26375    0.54531   1.00
H2       0.01333    0.22442    0.54845   1.00
C5       -0.05095   0.22233    0.68537   1.00
H2       -0.06213   0.22434    0.70173   1.00
H2       -0.03897   0.18050    0.68363   1.00
C5       -0.11276   0.20793    0.67213   1.00
H2       -0.15940   0.16270    0.67804   1.00
C5       0.18370    0.57554    0.67122   1.00
H2       0.24000    0.59857    0.67154   1.00
H2       0.16836    0.56134    0.65516   1.00
C5       0.15057    0.51139    0.68489   1.00
H2       0.14678    0.46655    0.67674   1.00
H2       0.09858    0.49970    0.68955   1.00
O_3      0.05235    0.79533    0.66890   1.00
C4       0.19137    0.83469    0.66650   1.00
C3c      0.19320    0.77449    0.66292   1.00
H1       0.17262    0.74669    0.64895   1.00
C3d      0.21934    0.87067    0.68468   1.00
C3       0.22052    0.74872    0.67731   1.00
O2       0.22814    0.69435    0.67172   1.00
C3       0.24539    0.84445    0.69921   1.00
H1       0.26408    0.87253    0.71322   1.00
C2       0.24696    0.78325    0.69592   1.00
C5       0.03887    0.83076    0.68416   1.00
H2       0.01157    0.85656    0.67813   1.00
H2       0.08702    0.87011    0.69149   1.00
C5       -0.00599   0.77900    0.70002   1.00
H2       0.02046    0.75186    0.70563   1.00
H2       -0.05416   0.74034    0.69257   1.00
C5       -0.02117   0.81374    0.71761   1.00
H2       -0.04716   0.84134    0.71209   1.00
H2       0.02670    0.85064    0.72550   1.00
H2       -0.05524   0.77493    0.72882   1.00
C5       0.27037    0.98621    0.68145   1.00
C5       0.17010    0.63260    0.67769   1.00
H2       0.27115    0.98377    0.66462   1.00
H2       0.31968    0.99351    0.68744   1.00
H2       0.12370    0.62675    0.66991   1.00
H2       0.16062    0.63021    0.69440   1.00
H2       0.18203    0.51867    0.69873   1.00
H2       0.29373    1.10550    0.65898   1.00
H2       0.36402    1.12209    0.67578   1.00
C2       0.10210    0.91149    0.62437   1.00
C3       0.17102    0.92905    0.62222   1.00
O2       0.21450    0.98322    0.61011   1.00
C3       0.06313    0.86572    0.64001   1.00
H1       0.00978    0.84989    0.64173   1.00
C3a      0.19963    0.90229    0.63589   1.00
H1       0.25343    0.91926    0.63477   1.00
C3b      0.09230    0.84092    0.65398   1.00
C4       0.16108    0.85924    0.65202   1.00
O_3      0.21416    0.92731    0.68961   1.00
C5       0.22461    0.95936    0.59140   1.00
H2       0.24705    0.92572    0.59362   1.00
C5       0.27404    1.02210    0.57906   1.00
H2       0.17562    0.93028    0.58297   1.00
H2       0.32680    1.03977    0.58452   1.00
H2       0.26276    1.06353    0.58265   1.00
C5       0.26885    1.00841    0.55603   1.00
H2       0.27488    0.96350    0.55288   1.00
H2       0.30931    1.05328    0.54773   1.00
H2       0.21891    0.99907    0.54985   1.00
C5       0.26316    1.04714    0.68757   1.00
H2       0.27417    1.05654    0.70408   1.00
H2       0.20897    1.03332    0.68536   1.00
C5       0.31041    1.11125    0.67514   1.00
H2       0.30908    1.15613    0.68140   1.00
