data_IRMOF10_interpen_symm_ligand3cp_label_e_2.

_audit_creation_method             'generated by an auxiliary program of Tobunporous'

_symmetry_space_group_name_H-M     'P 1'
_symmetry_Int_Tables_number        1
_symmetry_cell_setting             triclinic

_cell_length_a                    22.6523
_cell_length_b                    22.6523
_cell_length_c                    65.9502
_cell_angle_alpha                 90.0000
_cell_angle_beta                  90.0000
_cell_angle_gamma                 120.0000

loop_
_atom_site_label
_atom_site_fract_x
_atom_site_fract_y
_atom_site_fract_z
_atom_site_occupancy
O1       0.00000    0.00000    0.57470   1.00
Zn1      0.00000    0.00000    0.54560   1.00
Zn1      0.94843    0.04287    0.58357   1.00
Zn1      0.09443    0.05157    0.58357   1.00
Zn1      0.95713    0.90557    0.58357   1.00
O2       0.93860    0.02610    0.53560   1.00
O2       0.08750    0.06140    0.53560   1.00
O2       0.97390    0.91250    0.53560   1.00
O2       0.91300    0.07160    0.56150   1.00
O2       0.00463    0.12027    0.60077   1.00
O2       0.87413    0.98077    0.60037   1.00
O2       0.15860    0.08700    0.56150   1.00
O2       0.10663    0.12587    0.60037   1.00
O2       0.11563    0.99537    0.60077   1.00
O2       0.92840    0.84140    0.56150   1.00
O2       0.87973    0.88437    0.60077   1.00
O2       0.01923    0.89337    0.60037   1.00
C1       0.91390    0.06020    0.54330   1.00
C1       0.14630    0.08610    0.54330   1.00
C1       0.93980    0.85370    0.54330   1.00
C1       0.06663    0.14397    0.60637   1.00
C1       0.85603    0.92267    0.60637   1.00
C1       0.07733    0.93337    0.60637   1.00
O1       0.00000    0.00000    0.92530   1.00
Zn1      0.00000    0.00000    0.95440   1.00
Zn1      0.04287    0.94843    0.91643   1.00
Zn1      0.05157    0.09443    0.91643   1.00
Zn1      0.90557    0.95713    0.91643   1.00
O2       0.02610    0.93860    0.96440   1.00
O2       0.06140    0.08750    0.96440   1.00
O2       0.91250    0.97390    0.96440   1.00
O2       0.07160    0.91300    0.93850   1.00
O2       0.12027    0.00463    0.89923   1.00
O2       0.98077    0.87413    0.89963   1.00
O2       0.08700    0.15860    0.93850   1.00
O2       0.12587    0.10663    0.89963   1.00
O2       0.99537    0.11563    0.89923   1.00
O2       0.84140    0.92840    0.93850   1.00
O2       0.88437    0.87973    0.89923   1.00
O2       0.89337    0.01923    0.89963   1.00
C1       0.06020    0.91390    0.95670   1.00
C1       0.08610    0.14630    0.95670   1.00
C1       0.85370    0.93980    0.95670   1.00
C1       0.14397    0.06663    0.89363   1.00
C1       0.92267    0.85603    0.89363   1.00
C1       0.93337    0.07733    0.89363   1.00
O1       0.00000    0.00000    0.42530   1.00
Zn1      0.00000    0.00000    0.45440   1.00
Zn1      0.05157    0.95713    0.41643   1.00
Zn1      0.90557    0.94843    0.41643   1.00
Zn1      0.04287    0.09443    0.41643   1.00
O2       0.06140    0.97390    0.46440   1.00
O2       0.91250    0.93860    0.46440   1.00
O2       0.02610    0.08750    0.46440   1.00
O2       0.08700    0.92840    0.43850   1.00
O2       0.99537    0.87973    0.39923   1.00
O2       0.12587    0.01923    0.39963   1.00
O2       0.84140    0.91300    0.43850   1.00
O2       0.89337    0.87413    0.39963   1.00
O2       0.88437    0.00463    0.39923   1.00
O2       0.07160    0.15860    0.43850   1.00
O2       0.12027    0.11563    0.39923   1.00
O2       0.98077    0.10663    0.39963   1.00
C1       0.08610    0.93980    0.45670   1.00
C1       0.85370    0.91390    0.45670   1.00
C1       0.06020    0.14630    0.45670   1.00
C1       0.93337    0.85603    0.39363   1.00
C1       0.14397    0.07733    0.39363   1.00
C1       0.92267    0.06663    0.39363   1.00
O1       0.00000    0.00000    0.07470   1.00
Zn1      0.00000    0.00000    0.04560   1.00
Zn1      0.95713    0.05157    0.08357   1.00
Zn1      0.94843    0.90557    0.08357   1.00
Zn1      0.09443    0.04287    0.08357   1.00
O2       0.97390    0.06140    0.03560   1.00
O2       0.93860    0.91250    0.03560   1.00
O2       0.08750    0.02610    0.03560   1.00
O2       0.92840    0.08700    0.06150   1.00
O2       0.87973    0.99537    0.10077   1.00
O2       0.01923    0.12587    0.10037   1.00
O2       0.91300    0.84140    0.06150   1.00
O2       0.87413    0.89337    0.10037   1.00
O2       0.00463    0.88437    0.10077   1.00
O2       0.15860    0.07160    0.06150   1.00
O2       0.11563    0.12027    0.10077   1.00
O2       0.10663    0.98077    0.10037   1.00
C1       0.93980    0.08610    0.04330   1.00
C1       0.91390    0.85370    0.04330   1.00
C1       0.14630    0.06020    0.04330   1.00
C1       0.85603    0.93337    0.10637   1.00
C1       0.07733    0.14397    0.10637   1.00
C1       0.06663    0.92267    0.10637   1.00
O1       0.66667    0.33333    0.90803   1.00
Zn1      0.66667    0.33333    0.87893   1.00
Zn1      0.61510    0.37620    0.91690   1.00
Zn1      0.76110    0.38490    0.91690   1.00
Zn1      0.62380    0.23890    0.91690   1.00
O2       0.60527    0.35943    0.86893   1.00
O2       0.75417    0.39473    0.86893   1.00
O2       0.64057    0.24583    0.86893   1.00
O2       0.57967    0.40493    0.89483   1.00
O2       0.67130    0.45360    0.93410   1.00
O2       0.54080    0.31410    0.93370   1.00
O2       0.82527    0.42033    0.89483   1.00
O2       0.77330    0.45920    0.93370   1.00
O2       0.78230    0.32870    0.93410   1.00
O2       0.59507    0.17473    0.89483   1.00
O2       0.54640    0.21770    0.93410   1.00
O2       0.68590    0.22670    0.93370   1.00
C1       0.58057    0.39353    0.87663   1.00
C1       0.81297    0.41943    0.87663   1.00
C1       0.60647    0.18703    0.87663   1.00
C1       0.73330    0.47730    0.93970   1.00
C1       0.52270    0.25600    0.93970   1.00
C1       0.74400    0.26670    0.93970   1.00
O1       0.66667    0.33333    0.25863   1.00
Zn1      0.66667    0.33333    0.28773   1.00
Zn1      0.70953    0.28177    0.24977   1.00
Zn1      0.71823    0.42777    0.24977   1.00
Zn1      0.57223    0.29047    0.24977   1.00
O2       0.69277    0.27193    0.29773   1.00
O2       0.72807    0.42083    0.29773   1.00
O2       0.57917    0.30723    0.29773   1.00
O2       0.73827    0.24633    0.27183   1.00
O2       0.78693    0.33797    0.23257   1.00
O2       0.64743    0.20747    0.23297   1.00
O2       0.75367    0.49193    0.27183   1.00
O2       0.79253    0.43997    0.23297   1.00
O2       0.66203    0.44897    0.23257   1.00
O2       0.50807    0.26173    0.27183   1.00
O2       0.55103    0.21307    0.23257   1.00
O2       0.56003    0.35257    0.23297   1.00
C1       0.72687    0.24723    0.29003   1.00
C1       0.75277    0.47963    0.29003   1.00
C1       0.52037    0.27313    0.29003   1.00
C1       0.81063    0.39997    0.22697   1.00
C1       0.58933    0.18937    0.22697   1.00
C1       0.60003    0.41067    0.22697   1.00
O1       0.66667    0.33333    0.75863   1.00
Zn1      0.66667    0.33333    0.78773   1.00
Zn1      0.71823    0.29047    0.74977   1.00
Zn1      0.57223    0.28177    0.74977   1.00
Zn1      0.70953    0.42777    0.74977   1.00
O2       0.72807    0.30723    0.79773   1.00
O2       0.57917    0.27193    0.79773   1.00
O2       0.69277    0.42083    0.79773   1.00
O2       0.75367    0.26173    0.77183   1.00
O2       0.66203    0.21307    0.73257   1.00
O2       0.79253    0.35257    0.73297   1.00
O2       0.50807    0.24633    0.77183   1.00
O2       0.56003    0.20747    0.73297   1.00
O2       0.55103    0.33797    0.73257   1.00
O2       0.73827    0.49193    0.77183   1.00
O2       0.78693    0.44897    0.73257   1.00
O2       0.64743    0.43997    0.73297   1.00
C1       0.75277    0.27313    0.79003   1.00
C1       0.52037    0.24723    0.79003   1.00
C1       0.72687    0.47963    0.79003   1.00
C1       0.60003    0.18937    0.72697   1.00
C1       0.81063    0.41067    0.72697   1.00
C1       0.58933    0.39997    0.72697   1.00
O1       0.66667    0.33333    0.40803   1.00
Zn1      0.66667    0.33333    0.37893   1.00
Zn1      0.62380    0.38490    0.41690   1.00
Zn1      0.61510    0.23890    0.41690   1.00
Zn1      0.76110    0.37620    0.41690   1.00
O2       0.64057    0.39473    0.36893   1.00
O2       0.60527    0.24583    0.36893   1.00
O2       0.75417    0.35943    0.36893   1.00
O2       0.59507    0.42033    0.39483   1.00
O2       0.54640    0.32870    0.43410   1.00
O2       0.68590    0.45920    0.43370   1.00
O2       0.57967    0.17473    0.39483   1.00
O2       0.54080    0.22670    0.43370   1.00
O2       0.67130    0.21770    0.43410   1.00
O2       0.82527    0.40493    0.39483   1.00
O2       0.78230    0.45360    0.43410   1.00
O2       0.77330    0.31410    0.43370   1.00
C1       0.60647    0.41943    0.37663   1.00
C1       0.58057    0.18703    0.37663   1.00
C1       0.81297    0.39353    0.37663   1.00
C1       0.52270    0.26670    0.43970   1.00
C1       0.74400    0.47730    0.43970   1.00
C1       0.73330    0.25600    0.43970   1.00
O1       0.33333    0.66667    0.24137   1.00
Zn1      0.33333    0.66667    0.21227   1.00
Zn1      0.28177    0.70953    0.25023   1.00
Zn1      0.42777    0.71823    0.25023   1.00
Zn1      0.29047    0.57223    0.25023   1.00
O2       0.27193    0.69277    0.20227   1.00
O2       0.42083    0.72807    0.20227   1.00
O2       0.30723    0.57917    0.20227   1.00
O2       0.24633    0.73827    0.22817   1.00
O2       0.33797    0.78693    0.26743   1.00
O2       0.20747    0.64743    0.26703   1.00
O2       0.49193    0.75367    0.22817   1.00
O2       0.43997    0.79253    0.26703   1.00
O2       0.44897    0.66203    0.26743   1.00
O2       0.26173    0.50807    0.22817   1.00
O2       0.21307    0.55103    0.26743   1.00
O2       0.35257    0.56003    0.26703   1.00
C1       0.24723    0.72687    0.20997   1.00
C1       0.47963    0.75277    0.20997   1.00
C1       0.27313    0.52037    0.20997   1.00
C1       0.39997    0.81063    0.27303   1.00
C1       0.18937    0.58933    0.27303   1.00
C1       0.41067    0.60003    0.27303   1.00
O1       0.33333    0.66667    0.59197   1.00
Zn1      0.33333    0.66667    0.62107   1.00
Zn1      0.37620    0.61510    0.58310   1.00
Zn1      0.38490    0.76110    0.58310   1.00
Zn1      0.23890    0.62380    0.58310   1.00
O2       0.35943    0.60527    0.63107   1.00
O2       0.39473    0.75417    0.63107   1.00
O2       0.24583    0.64057    0.63107   1.00
O2       0.40493    0.57967    0.60517   1.00
O2       0.45360    0.67130    0.56590   1.00
O2       0.31410    0.54080    0.56630   1.00
O2       0.42033    0.82527    0.60517   1.00
O2       0.45920    0.77330    0.56630   1.00
O2       0.32870    0.78230    0.56590   1.00
O2       0.17473    0.59507    0.60517   1.00
O2       0.21770    0.54640    0.56590   1.00
O2       0.22670    0.68590    0.56630   1.00
C1       0.39353    0.58057    0.62337   1.00
C1       0.41943    0.81297    0.62337   1.00
C1       0.18703    0.60647    0.62337   1.00
C1       0.47730    0.73330    0.56030   1.00
C1       0.25600    0.52270    0.56030   1.00
C1       0.26670    0.74400    0.56030   1.00
O1       0.33333    0.66667    0.09197   1.00
Zn1      0.33333    0.66667    0.12107   1.00
Zn1      0.38490    0.62380    0.08310   1.00
Zn1      0.23890    0.61510    0.08310   1.00
Zn1      0.37620    0.76110    0.08310   1.00
O2       0.39473    0.64057    0.13107   1.00
O2       0.24583    0.60527    0.13107   1.00
O2       0.35943    0.75417    0.13107   1.00
O2       0.42033    0.59507    0.10517   1.00
O2       0.32870    0.54640    0.06590   1.00
O2       0.45920    0.68590    0.06630   1.00
O2       0.17473    0.57967    0.10517   1.00
O2       0.22670    0.54080    0.06630   1.00
O2       0.21770    0.67130    0.06590   1.00
O2       0.40493    0.82527    0.10517   1.00
O2       0.45360    0.78230    0.06590   1.00
O2       0.31410    0.77330    0.06630   1.00
C1       0.41943    0.60647    0.12337   1.00
C1       0.18703    0.58057    0.12337   1.00
C1       0.39353    0.81297    0.12337   1.00
C1       0.26670    0.52270    0.06030   1.00
C1       0.47730    0.74400    0.06030   1.00
C1       0.25600    0.73330    0.06030   1.00
O1       0.33333    0.66667    0.74137   1.00
Zn1      0.33333    0.66667    0.71227   1.00
Zn1      0.29047    0.71823    0.75023   1.00
Zn1      0.28177    0.57223    0.75023   1.00
Zn1      0.42777    0.70953    0.75023   1.00
O2       0.30723    0.72807    0.70227   1.00
O2       0.27193    0.57917    0.70227   1.00
O2       0.42083    0.69277    0.70227   1.00
O2       0.26173    0.75367    0.72817   1.00
O2       0.21307    0.66203    0.76743   1.00
O2       0.35257    0.79253    0.76703   1.00
O2       0.24633    0.50807    0.72817   1.00
O2       0.20747    0.56003    0.76703   1.00
O2       0.33797    0.55103    0.76743   1.00
O2       0.49193    0.73827    0.72817   1.00
O2       0.44897    0.78693    0.76743   1.00
O2       0.43997    0.64743    0.76703   1.00
C1       0.27313    0.75277    0.70997   1.00
C1       0.24723    0.52037    0.70997   1.00
C1       0.47963    0.72687    0.70997   1.00
C1       0.18937    0.60003    0.77303   1.00
C1       0.41067    0.81063    0.77303   1.00
C1       0.39997    0.58933    0.77303   1.00
C4       0.85983    0.69138    0.49922   1.00
C4       0.83092    0.63541    0.48532   1.00
C3       0.92836    0.74564    0.49815   1.00
C3       0.86921    0.62489    0.47014   1.00
C3       0.81869    0.69321    0.51534   1.00
C3       0.75977    0.58698    0.48647   1.00
C2       0.91545    0.80098    0.52850   1.00
C2       0.76900    0.52008    0.45809   1.00
C3       0.95556    0.79874    0.51244   1.00
C3       0.83902    0.56917    0.45677   1.00
C3       0.84672    0.74790    0.52938   1.00
C3       0.73094    0.52963    0.47343   1.00
H1       0.96045    0.74829    0.48691   1.00
H1       0.92023    0.65714    0.46843   1.00
C5       0.74974    0.64057    0.51727   1.00
C5       0.71784    0.59561    0.50073   1.00
H1       1.00561    0.83634    0.51099   1.00
H1       0.86910    0.56448    0.44598   1.00
H1       0.81606    0.74952    0.54053   1.00
H1       0.68090    0.49315    0.47530   1.00
O3       0.71380    0.63636    0.53460   1.00
O3       0.64755    0.55762    0.49948   1.00
Si1      0.71099    0.58791    0.55335   1.00
Si1      0.60779    0.58376    0.48455   1.00
C6       0.67047    0.61447    0.57105   1.00
C6       0.65695    0.50254    0.54594   1.00
C6       0.79244    0.60680    0.56195   1.00
C6       0.65706    0.65815    0.46998   1.00
C6       0.56196    0.51400    0.46829   1.00
C6       0.54869    0.59322    0.49956   1.00
C6       0.70086    0.69346    0.57300   1.00
H2       0.62010    0.59520    0.56428   1.00
C6       0.65697    0.58685    0.59340   1.00
H2       0.62444    0.50770    0.53470   1.00
C6       0.68926    0.46427    0.53492   1.00
C6       0.60713    0.45075    0.56202   1.00
H2       0.81888    0.66232    0.56333   1.00
C6       0.79669    0.57917    0.58338   1.00
C6       0.83831    0.58954    0.54810   1.00
C6       0.70692    0.72544    0.48142   1.00
C6       0.69678    0.65483    0.45096   1.00
H2       0.61810    0.66741    0.46347   1.00
H2       0.60132    0.51333    0.45891   1.00
C6       0.52357    0.44216    0.47863   1.00
C6       0.51012    0.51746    0.45336   1.00
H2       0.50547    0.54147    0.50090   1.00
C6       0.57064    0.61742    0.52183   1.00
C6       0.51900    0.63754    0.49099   1.00
H2       0.70234    0.71668    0.55835   1.00
H2       0.75272    0.71827    0.57907   1.00
H2       0.66984    0.70538    0.58306   1.00
H2       0.60963    0.58267    0.59906   1.00
H2       0.65222    0.53683    0.59475   1.00
H2       0.69726    0.62097    0.60378   1.00
H2       0.64991    0.41826    0.52741   1.00
H2       0.72500    0.49533    0.52314   1.00
H2       0.71560    0.44863    0.54564   1.00
H2       0.57437    0.46821    0.56865   1.00
H2       0.57294    0.40114    0.55515   1.00
H2       0.63514    0.44255    0.57414   1.00
H2       0.76206    0.52422    0.58445   1.00
H2       0.84818    0.58918    0.58682   1.00
H2       0.78466    0.60439    0.59536   1.00
H2       0.82794    0.53747    0.55039   1.00
H2       0.83228    0.59524    0.53205   1.00
H2       0.89217    0.62359    0.55167   1.00
H2       0.75528    0.72816    0.48483   1.00
H2       0.71855    0.76988    0.47208   1.00
H2       0.68535    0.73096    0.49556   1.00
H2       0.71655    0.70164    0.44201   1.00
H2       0.74029    0.64934    0.45509   1.00
H2       0.66420    0.61312    0.44079   1.00
H2       0.50665    0.40181    0.46723   1.00
H2       0.55680    0.43492    0.48912   1.00
H2       0.47872    0.43450    0.48701   1.00
H2       0.53323    0.56539    0.44496   1.00
H2       0.49244    0.47647    0.44214   1.00
H2       0.46531    0.51170    0.46137   1.00
H2       0.61557    0.66817    0.52255   1.00
H2       0.52973    0.61810    0.53041   1.00
H2       0.58270    0.58244    0.52956   1.00
H2       0.47578    0.63094    0.50012   1.00
H2       0.55723    0.69177    0.49107   1.00
H2       0.50032    0.62305    0.47552   1.00
C4       0.31532    0.16984    0.50156   1.00
C4       0.36990    0.19498    0.48719   1.00
C3       0.31532    0.13799    0.52011   1.00
C3       0.42695    0.18526    0.48906   1.00
C3       0.25672    0.17567    0.49714   1.00
C3       0.36804    0.23216    0.46996   1.00
C2       0.20148    0.11730    0.52934   1.00
C2       0.47746    0.24609    0.45725   1.00
C3       0.25985    0.11208    0.53357   1.00
C3       0.47958    0.21064    0.47461   1.00
C3       0.20183    0.15035    0.51110   1.00
C3       0.42013    0.25477    0.45513   1.00
H1       0.35574    0.13289    0.52442   1.00
H1       0.43174    0.15909    0.50091   1.00
C5       0.25347    0.20700    0.47886   1.00
C5       0.31401    0.24609    0.46749   1.00
H1       0.26252    0.08912    0.54669   1.00
H1       0.51987    0.20258    0.47684   1.00
H1       0.16096    0.15659    0.50799   1.00
H1       0.41584    0.27746    0.44224   1.00
O3       0.19284    0.20242    0.47308   1.00
O3       0.31792    0.29289    0.45331   1.00
Si1      0.14115    0.14120    0.45793   1.00
Si1      0.35668    0.37349    0.45943   1.00
C6       0.07205    0.15633    0.45968   1.00
C6       0.17770    0.16060    0.43350   1.00
C6       0.11851    0.05912    0.46694   1.00
C6       0.39452    0.39739    0.48371   1.00
C6       0.42002    0.41163    0.44074   1.00
C6       0.29791    0.40206    0.45594   1.00
C6       0.05204    0.16630    0.48166   1.00
H2       0.09249    0.20602    0.45236   1.00
C6       0.00264    0.10859    0.44869   1.00
H2       0.20975    0.21597    0.43422   1.00
C6       0.22633    0.13320    0.42730   1.00
C6       0.12986    0.14608    0.41477   1.00
H2       0.10507    0.06148    0.48273   1.00
C6       0.05433    -0.00298   0.45724   1.00
C6       0.17355    0.03619    0.46741   1.00
C6       0.34813    0.36406    0.50268   1.00
C6       0.46285    0.39798    0.48804   1.00
H2       0.40928    0.45120    0.48441   1.00
H2       0.45589    0.39434    0.44442   1.00
C6       0.39689    0.38774    0.41840   1.00
C6       0.46226    0.49131    0.44025   1.00
H2       0.29954    0.41152    0.43966   1.00
C6       0.22178    0.34944    0.46057   1.00
C6       0.31294    0.47012    0.46652   1.00
H2       0.09552    0.20705    0.48970   1.00
H2       0.03289    0.11962    0.49060   1.00
H2       0.01250    0.18055    0.48132   1.00
H2       -0.02088   0.13819    0.44374   1.00
H2       0.00851    0.08372    0.43536   1.00
H2       -0.03419   0.06862    0.45867   1.00
H2       0.25639    0.16017    0.41394   1.00
H2       0.26278    0.14088    0.43921   1.00
H2       0.19756    0.07901    0.42356   1.00
H2       0.10023    0.17183    0.41621   1.00
H2       0.15925    0.16513    0.40074   1.00
H2       0.09504    0.09143    0.41286   1.00
H2       0.05857    -0.00253   0.44073   1.00
H2       0.04702    -0.05183   0.46271   1.00
H2       0.00782    -0.00302   0.46129   1.00
H2       0.17610    0.01349    0.45306   1.00
H2       0.22457    0.07739    0.47065   1.00
H2       0.16089    -0.00235   0.47918   1.00
H2       0.34212    0.31428    0.50608   1.00
H2       0.37066    0.39592    0.51610   1.00
H2       0.29763    0.35795    0.50076   1.00
H2       0.48457    0.42284    0.50255   1.00
H2       0.45568    0.34684    0.48892   1.00
H2       0.50156    0.42643    0.47659   1.00
H2       0.44129    0.40509    0.40849   1.00
H2       0.36788    0.33215    0.41730   1.00
H2       0.36547    0.40769    0.41236   1.00
H2       0.48234    0.51260    0.45520   1.00
H2       0.50610    0.50865    0.43010   1.00
H2       0.43165    0.51297    0.43475   1.00
H2       0.21376    0.33368    0.47643   1.00
H2       0.18834    0.36978    0.45690   1.00
H2       0.20535    0.30416    0.45134   1.00
H2       0.27900    0.48760    0.46076   1.00
H2       0.30547    0.46363    0.48292   1.00
H2       0.36491    0.51103    0.46368   1.00
C4       0.83131    0.14642    0.50150   1.00
C4       0.80600    0.17560    0.48710   1.00
C3       0.87515    0.18354    0.51783   1.00
C3       0.82689    0.24607    0.48648   1.00
C3       0.81291    0.07653    0.49943   1.00
C3       0.75692    0.13243    0.47245   1.00
C2       0.88301    0.08463    0.52939   1.00
C2       0.75360    0.23092    0.45720   1.00
C3       0.90063    0.15365    0.53132   1.00
C3       0.80095    0.27290    0.47207   1.00
C3       0.83813    0.04698    0.51343   1.00
C3       0.73363    0.16095    0.45752   1.00
H1       0.88968    0.23331    0.52043   1.00
H1       0.86187    0.28004    0.49639   1.00
C5       0.76922    0.03654    0.48344   1.00
C5       0.73176    0.06118    0.47263   1.00
H1       0.93255    0.18314    0.54275   1.00
H1       0.81746    0.32416    0.47246   1.00
H1       0.82298    -0.00370   0.51209   1.00
H1       0.70185    0.13009    0.44635   1.00
O3       0.76077    -0.02697   0.47946   1.00
O3       0.67511    0.01711    0.46139   1.00
Si1      0.80877    -0.03527   0.46253   1.00
Si1      0.59950    -0.00988   0.47103   1.00
C6       0.78210    -0.12168   0.46744   1.00
C6       0.78105    -0.02512   0.43847   1.00
C6       0.89687    0.01752    0.46717   1.00
C6       0.59370    0.02105    0.49514   1.00
C6       0.55953    0.01506    0.45287   1.00
C6       0.55748    -0.09965   0.47126   1.00
C6       0.78012    -0.14133   0.49033   1.00
H2       0.72888    -0.14733   0.46257   1.00
C6       0.81509    -0.15886   0.45600   1.00
H2       0.72813    -0.03954   0.44148   1.00
C6       0.81488    0.04812    0.42911   1.00
C6       0.77825    -0.07237   0.42072   1.00
H2       0.90069    0.00864    0.48329   1.00
C6       0.94666    -0.00075   0.45595   1.00
C6       0.93065    0.09685    0.46443   1.00
C6       0.63156    0.01009    0.51331   1.00
C6       0.60688    0.09562    0.49720   1.00
H2       0.53952    -0.01048   0.49861   1.00
H2       0.58587    0.07047    0.45427   1.00
C6       0.56884    0.00078    0.43020   1.00
C6       0.48190    -0.01056   0.45584   1.00
H2       0.53887    -0.11410   0.45575   1.00
C6       0.60300    -0.13219   0.47512   1.00
C6       0.49361    -0.13876   0.48531   1.00
H2       0.74859    -0.12708   0.49929   1.00
H2       0.83126    -0.11617   0.49693   1.00
H2       0.75821    -0.19637   0.49216   1.00
H2       0.77710    -0.21256   0.45370   1.00
H2       0.83519    -0.13696   0.44118   1.00
H2       0.85671    -0.15804   0.46460   1.00
H2       0.78407    0.04995    0.41661   1.00
H2       0.81931    0.08598    0.44010   1.00
H2       0.86546    0.06356    0.42308   1.00
H2       0.74677    -0.12615   0.42466   1.00
H2       0.75536    -0.06457   0.40711   1.00
H2       0.82930    -0.06213   0.41667   1.00
H2       0.93792    -0.00454   0.43959   1.00
H2       1.00018    0.03731    0.45862   1.00
H2       0.94110    -0.04847   0.46146   1.00
H2       0.94734    0.11280    0.44885   1.00
H2       0.89729    0.11645    0.46845   1.00
H2       0.97578    0.12310    0.47410   1.00
H2       0.68517    0.04937    0.51384   1.00
H2       0.60887    0.01240    0.52771   1.00
H2       0.62853    -0.03939   0.51271   1.00
H2       0.59206    0.10379    0.51227   1.00
H2       0.66037    0.13366    0.49520   1.00
H2       0.57699    0.10630    0.48638   1.00
H2       0.55251    0.02811    0.42004   1.00
H2       0.62230    0.01847    0.42669   1.00
H2       0.53914    -0.05336   0.42649   1.00
H2       0.47082    -0.00078   0.47118   1.00
H2       0.46535    0.01606    0.44547   1.00
H2       0.45081    -0.06509   0.45274   1.00
H2       0.62698    -0.11920   0.49003   1.00
H2       0.57384    -0.18771   0.47383   1.00
H2       0.64322    -0.11410   0.46383   1.00
H2       0.46625    -0.19328   0.48181   1.00
H2       0.50814    -0.13313   0.50130   1.00
H2       0.45741    -0.12081   0.48329   1.00
C4       0.69135    0.85994    0.00077   1.00
C4       0.63537    0.83099    0.01466   1.00
C3       0.74471    0.92894    0.00154   1.00
C3       0.62387    0.86956    0.02952   1.00
C3       0.69413    0.81830    -0.01503   1.00
C3       0.58795    0.75952    0.01385   1.00
C2       0.80100    0.91550    -0.02850   1.00
C2       0.52006    0.76895    0.04191   1.00
C3       0.79783    0.95610    -0.01275   1.00
C3       0.56818    0.83932    0.04289   1.00
C3       0.74883    0.84634    -0.02907   1.00
C3       0.53058    0.73057    0.02689   1.00
H1       0.74667    0.96142    0.01255   1.00
H1       0.65536    0.92082    0.03097   1.00
C5       0.64240    0.74887    -0.01666   1.00
C5       0.59761    0.71737    -0.00006   1.00
H1       0.83474    1.00650    -0.01152   1.00
H1       0.56276    0.86963    0.05344   1.00
H1       0.75116    0.81537    -0.03999   1.00
H1       0.49479    0.68019    0.02525   1.00
O3       0.63898    0.71217    -0.03373   1.00
O3       0.56073    0.64712    0.00157   1.00
Si1      0.59013    0.70720    -0.05265   1.00
Si1      0.58795    0.60928    0.01689   1.00
C6       0.61788    0.66662    -0.06993   1.00
C6       0.50500    0.65238    -0.04516   1.00
C6       0.60749    0.78763    -0.06178   1.00
C6       0.66203    0.66049    0.03138   1.00
C6       0.51839    0.56345    0.03322   1.00
C6       0.59882    0.55011    0.00236   1.00
C6       0.69706    0.69826    -0.07181   1.00
H2       0.59947    0.61681    -0.06287   1.00
C6       0.59033    0.65130    -0.09229   1.00
H2       0.51087    0.62103    -0.03366   1.00
C6       0.46560    0.68418    -0.03453   1.00
C6       0.45377    0.60101    -0.06107   1.00
H2       0.66303    0.81489    -0.06313   1.00
C6       0.57955    0.78993    -0.08333   1.00
C6       0.58904    0.83347    -0.04833   1.00
C6       0.72899    0.71055    0.01983   1.00
C6       0.65777    0.70087    0.05009   1.00
H2       0.67220    0.62257    0.03821   1.00
H2       0.51685    0.60293    0.04230   1.00
C6       0.44665    0.52330    0.02289   1.00
C6       0.52295    0.51318    0.04854   1.00
H2       0.54745    0.50619    0.00114   1.00
C6       0.62286    0.57098    -0.01998   1.00
C6       0.64422    0.52224    0.01132   1.00
H2       0.72045    0.70112    -0.05709   1.00
H2       0.72104    0.74970    -0.07816   1.00
H2       0.70980    0.66722    -0.08159   1.00
H2       0.58713    0.60406    -0.09762   1.00
H2       0.53988    0.64545    -0.09380   1.00
H2       0.62397    0.69125    -0.10284   1.00
H2       0.41992    0.64473    -0.02691   1.00
H2       0.49619    0.72092    -0.02290   1.00
H2       0.44926    0.70923    -0.04550   1.00
H2       0.47214    0.56859    -0.06738   1.00
H2       0.40435    0.56656    -0.05413   1.00
H2       0.44492    0.62779    -0.07343   1.00
H2       0.52476    0.75443    -0.08436   1.00
H2       0.58857    0.84085    -0.08712   1.00
H2       0.60532    0.77784    -0.09513   1.00
H2       0.53664    0.82195    -0.05074   1.00
H2       0.59488    0.82861    -0.03222   1.00
H2       0.62230    0.88724    -0.05216   1.00
H2       0.73071    0.75822    0.01607   1.00
H2       0.77362    0.72358    0.02925   1.00
H2       0.73507    0.68847    0.00587   1.00
H2       0.70461    0.72198    0.05906   1.00
H2       0.65129    0.74352    0.04561   1.00
H2       0.61628    0.66837    0.06033   1.00
H2       0.40620    0.50641    0.03426   1.00
H2       0.43864    0.55536    0.01213   1.00
H2       0.43989    0.47827    0.01481   1.00
H2       0.57087    0.53758    0.05695   1.00
H2       0.48187    0.49549    0.05973   1.00
H2       0.51811    0.46825    0.04084   1.00
H2       0.67319    0.61646    -0.02084   1.00
H2       0.62445    0.53001    -0.02825   1.00
H2       0.58728    0.58168    -0.02793   1.00
H2       0.63849    0.47880    0.00248   1.00
H2       0.69819    0.56120    0.01116   1.00
H2       0.62992    0.50441    0.02687   1.00
C4       0.16984    0.31532    -0.00156   1.00
C4       0.19498    0.36990    0.01281   1.00
C3       0.13794    0.31530    -0.02010   1.00
C3       0.18521    0.42692    0.01094   1.00
C3       0.17571    0.25675    0.00285   1.00
C3       0.23220    0.36807    0.03004   1.00
C2       0.11730    0.20148    -0.02934   1.00
C2       0.24609    0.47746    0.04275   1.00
C3       0.11204    0.25982    -0.03356   1.00
C3       0.21059    0.47955    0.02540   1.00
C3       0.15040    0.20185    -0.01111   1.00
C3       0.25481    0.42015    0.04486   1.00
H1       0.13280    0.35570    -0.02440   1.00
H1       0.15901    0.43169    -0.00090   1.00
C5       0.20710    0.25351    0.02112   1.00
C5       0.24617    0.31407    0.03250   1.00
H1       0.08903    0.26248    -0.04667   1.00
H1       0.20250    0.51982    0.02317   1.00
H1       0.15667    0.16100    -0.00801   1.00
H1       0.27754    0.41588    0.05775   1.00
O3       0.20256    0.19290    0.02690   1.00
O3       0.29302    0.31800    0.04666   1.00
Si1      0.14139    0.14119    0.04206   1.00
Si1      0.37361    0.35680    0.04053   1.00
C6       0.15656    0.07212    0.04029   1.00
C6       0.16082    0.17775    0.06649   1.00
C6       0.05928    0.11850    0.03306   1.00
C6       0.39745    0.39465    0.01625   1.00
C6       0.41176    0.42014    0.05922   1.00
C6       0.40223    0.29807    0.04400   1.00
C6       0.16651    0.05212    0.01831   1.00
H2       0.20627    0.09259    0.04761   1.00
C6       0.10888    0.00271    0.05130   1.00
H2       0.21618    0.20982    0.06576   1.00
C6       0.13339    0.22634    0.07270   1.00
C6       0.14636    0.12991    0.08521   1.00
H2       0.06162    0.10506    0.01727   1.00
C6       -0.00278   0.05431    0.04278   1.00
C6       0.03630    0.17351    0.03261   1.00
C6       0.36410    0.34824    -0.00272   1.00
C6       0.39798    0.46295    0.01192   1.00
H2       0.45126    0.40943    0.01553   1.00
H2       0.39443    0.45600    0.05554   1.00
C6       0.38792    0.39701    0.08156   1.00
C6       0.49143    0.46243    0.05969   1.00
H2       0.41172    0.29971    0.06028   1.00
C6       0.34964    0.22193    0.03938   1.00
C6       0.47028    0.31314    0.03341   1.00
H2       0.20722    0.09562    0.01027   1.00
H2       0.11980    0.03295    0.00938   1.00
H2       0.18079    0.01260    0.01864   1.00
H2       0.13851    -0.02078   0.05623   1.00
H2       0.08402    0.00856    0.06462   1.00
H2       0.06890    -0.03414   0.04132   1.00
H2       0.16037    0.25640    0.08606   1.00
H2       0.14103    0.26278    0.06080   1.00
H2       0.07921    0.19755    0.07645   1.00
H2       0.17213    0.10030    0.08377   1.00
H2       0.16542    0.15931    0.09924   1.00
H2       0.09172    0.09506    0.08713   1.00
H2       -0.00230   0.05855    0.05928   1.00
H2       -0.05165   0.04696    0.03731   1.00
H2       -0.00280   0.00781    0.03872   1.00
H2       0.01362    0.17605    0.04696   1.00
H2       0.07748    0.22454    0.02936   1.00
H2       -0.00227   0.16083    0.02084   1.00
H2       0.31429    0.34220    -0.00611   1.00
H2       0.39593    0.37079    -0.01615   1.00
H2       0.35802    0.29776    -0.00081   1.00
H2       0.42281    0.48468    -0.00259   1.00
H2       0.34683    0.45575    0.01105   1.00
H2       0.42644    0.50167    0.02338   1.00
H2       0.40526    0.44141    0.09147   1.00
H2       0.33233    0.36798    0.08267   1.00
H2       0.40791    0.36562    0.08759   1.00
H2       0.51269    0.48251    0.04474   1.00
H2       0.50877    0.50627    0.06984   1.00
H2       0.51314    0.43185    0.06518   1.00
H2       0.33384    0.21390    0.02352   1.00
H2       0.37001    0.18851    0.04304   1.00
H2       0.30438    0.20548    0.04862   1.00
H2       0.48781    0.27922    0.03917   1.00
H2       0.46377    0.30566    0.01701   1.00
H2       0.51118    0.36512    0.03625   1.00
C4       0.14642    0.83131    -0.00150   1.00
C4       0.17560    0.80600    0.01290   1.00
C3       0.18354    0.87515    -0.01783   1.00
C3       0.24607    0.82689    0.01352   1.00
C3       0.07653    0.81291    0.00057   1.00
C3       0.13243    0.75692    0.02755   1.00
C2       0.08463    0.88301    -0.02939   1.00
C2       0.23092    0.75360    0.04280   1.00
C3       0.15365    0.90063    -0.03132   1.00
C3       0.27290    0.80095    0.02793   1.00
C3       0.04698    0.83813    -0.01343   1.00
C3       0.16095    0.73363    0.04248   1.00
H1       0.23331    0.88968    -0.02043   1.00
H1       0.28004    0.86187    0.00361   1.00
C5       0.03654    0.76922    0.01656   1.00
C5       0.06118    0.73176    0.02737   1.00
H1       0.18314    0.93255    -0.04275   1.00
H1       0.32416    0.81746    0.02754   1.00
H1       -0.00370   0.82298    -0.01209   1.00
H1       0.13009    0.70185    0.05365   1.00
O3       -0.02697   0.76077    0.02054   1.00
O3       0.01711    0.67511    0.03861   1.00
Si1      -0.03527   0.80877    0.03747   1.00
Si1      -0.00988   0.59950    0.02897   1.00
C6       -0.12168   0.78210    0.03256   1.00
C6       -0.02512   0.78105    0.06153   1.00
C6       0.01752    0.89687    0.03283   1.00
C6       0.02105    0.59370    0.00486   1.00
C6       0.01506    0.55953    0.04713   1.00
C6       -0.09965   0.55748    0.02874   1.00
C6       -0.14133   0.78012    0.00967   1.00
H2       -0.14733   0.72888    0.03743   1.00
C6       -0.15886   0.81509    0.04400   1.00
H2       -0.03954   0.72813    0.05852   1.00
C6       0.04812    0.81488    0.07089   1.00
C6       -0.07237   0.77825    0.07928   1.00
H2       0.00864    0.90069    0.01671   1.00
C6       -0.00075   0.94666    0.04405   1.00
C6       0.09685    0.93065    0.03557   1.00
C6       0.01009    0.63156    -0.01331   1.00
C6       0.09562    0.60688    0.00280   1.00
H2       -0.01048   0.53952    0.00139   1.00
H2       0.07047    0.58587    0.04573   1.00
C6       0.00078    0.56884    0.06980   1.00
C6       -0.01056   0.48190    0.04416   1.00
H2       -0.11410   0.53887    0.04425   1.00
C6       -0.13219   0.60300    0.02488   1.00
C6       -0.13876   0.49361    0.01469   1.00
H2       -0.12708   0.74859    0.00071   1.00
H2       -0.11617   0.83126    0.00307   1.00
H2       -0.19637   0.75821    0.00784   1.00
H2       -0.21256   0.77710    0.04630   1.00
H2       -0.13696   0.83519    0.05882   1.00
H2       -0.15804   0.85671    0.03540   1.00
H2       0.04995    0.78407    0.08339   1.00
H2       0.08598    0.81931    0.05990   1.00
H2       0.06356    0.86546    0.07692   1.00
H2       -0.12615   0.74677    0.07534   1.00
H2       -0.06457   0.75536    0.09289   1.00
H2       -0.06213   0.82930    0.08333   1.00
H2       -0.00454   0.93792    0.06041   1.00
H2       0.03731    1.00018    0.04138   1.00
H2       -0.04847   0.94110    0.03854   1.00
H2       0.11280    0.94734    0.05115   1.00
H2       0.11645    0.89729    0.03155   1.00
H2       0.12310    0.97578    0.02590   1.00
H2       0.04937    0.68517    -0.01384   1.00
H2       0.01240    0.60887    -0.02771   1.00
H2       -0.03939   0.62853    -0.01271   1.00
H2       0.10379    0.59206    -0.01227   1.00
H2       0.13366    0.66037    0.00480   1.00
H2       0.10630    0.57699    0.01362   1.00
H2       0.02811    0.55251    0.07996   1.00
H2       0.01847    0.62230    0.07331   1.00
H2       -0.05336   0.53914    0.07351   1.00
H2       -0.00078   0.47082    0.02882   1.00
H2       0.01606    0.46535    0.05453   1.00
H2       -0.06509   0.45081    0.04726   1.00
H2       -0.11920   0.62698    0.00997   1.00
H2       -0.18771   0.57384    0.02617   1.00
H2       -0.11410   0.64322    0.03617   1.00
H2       -0.19328   0.46625    0.01819   1.00
H2       -0.13313   0.50814    -0.00130   1.00
H2       -0.12081   0.45741    0.01671   1.00
C4       0.14010    0.31363    0.49908   1.00
C4       0.16903    0.36805    0.51350   1.00
C3       0.07124    0.28196    0.49249   1.00
C3       0.13055    0.39199    0.52413   1.00
C3       0.18158    0.28834    0.49092   1.00
C3       0.24041    0.40091    0.51763   1.00
C2       0.08451    0.20159    0.47062   1.00
C2       0.23104    0.47735    0.54279   1.00
C3       0.04407    0.22723    0.47875   1.00
C3       0.16077    0.44556    0.53823   1.00
C3       0.15355    0.23393    0.47678   1.00
C3       0.26932    0.45282    0.53253   1.00
H1       0.03888    0.29788    0.49743   1.00
H1       0.07936    0.37095    0.52204   1.00
C5       0.25086    0.31775    0.49687   1.00
C5       0.28249    0.38149    0.50704   1.00
H1       -0.00622   0.20603    0.47464   1.00
H1       0.13053    0.46113    0.54533   1.00
H1       0.18442    0.21758    0.47063   1.00
H1       0.31959    0.47283    0.53624   1.00
O3       0.28732    0.28621    0.49167   1.00
O3       0.35276    0.42099    0.50778   1.00
Si1      0.29160    0.23288    0.50744   1.00
Si1      0.39121    0.48500    0.49212   1.00
C6       0.33217    0.20302    0.49087   1.00
C6       0.34617    0.28120    0.52742   1.00
C6       0.21084    0.16614    0.51507   1.00
C6       0.34062    0.50255    0.47551   1.00
C6       0.43704    0.55483    0.50836   1.00
C6       0.45037    0.47231    0.47821   1.00
C6       0.30093    0.18262    0.46904   1.00
H2       0.38216    0.24838    0.48879   1.00
C6       0.34690    0.14506    0.49754   1.00
H2       0.37789    0.33055    0.52017   1.00
C6       0.31420    0.29586    0.54645   1.00
C6       0.39705    0.25984    0.53615   1.00
H2       0.18384    0.14918    0.50062   1.00
C6       0.20791    0.10170    0.52488   1.00
C6       0.16499    0.18224    0.52931   1.00
C6       0.29063    0.44454    0.46092   1.00
C6       0.30045    0.53694    0.48399   1.00
H2       0.37888    0.54162    0.46562   1.00
H2       0.39760    0.56158    0.51568   1.00
C6       0.47664    0.54392    0.52609   1.00
C6       0.48783    0.62482    0.49837   1.00
H2       0.49407    0.49014    0.48838   1.00
C6       0.42915    0.39690    0.47332   1.00
C6       0.47883    0.51296    0.45796   1.00
H2       0.29851    0.22448    0.46161   1.00
H2       0.24935    0.13859    0.46949   1.00
H2       0.33197    0.16975    0.45930   1.00
H2       0.39418    0.15312    0.49056   1.00
H2       0.35240    0.14300    0.51386   1.00
H2       0.30685    0.09465    0.49269   1.00
H2       0.35362    0.33734    0.55549   1.00
H2       0.27778    0.31180    0.54228   1.00
H2       0.28874    0.25109    0.55623   1.00
H2       0.42958    0.25785    0.52428   1.00
H2       0.43142    0.29678    0.54733   1.00
H2       0.36987    0.21023    0.54364   1.00
H2       0.24314    0.11582    0.53766   1.00
H2       0.15681    0.06525    0.53041   1.00
H2       0.21999    0.07360    0.51388   1.00
H2       0.17614    0.18036    0.54533   1.00
H2       0.17022    0.23181    0.52662   1.00
H2       0.11118    0.14451    0.52700   1.00
H2       0.24273    0.40970    0.46840   1.00
H2       0.27805    0.46605    0.44788   1.00
H2       0.31255    0.41489    0.45496   1.00
H2       0.27977    0.55314    0.47156   1.00
H2       0.25752    0.50244    0.49342   1.00
H2       0.33297    0.58265    0.49280   1.00
H2       0.49353    0.58512    0.53720   1.00
H2       0.44420    0.49634    0.53420   1.00
H2       0.52161    0.54280    0.52069   1.00
H2       0.46384    0.63773    0.48613   1.00
H2       0.50551    0.66589    0.50957   1.00
H2       0.53272    0.62477    0.49234   1.00
H2       0.38385    0.37219    0.46375   1.00
H2       0.47011    0.39325    0.46574   1.00
H2       0.41801    0.36790    0.48729   1.00
H2       0.52220    0.50884    0.45246   1.00
H2       0.44010    0.49362    0.44604   1.00
H2       0.49693    0.56715    0.45996   1.00
C4       0.68782    0.82664    0.49959   1.00
C4       0.63324    0.80150    0.51395   1.00
C3       0.73620    0.80425    0.49869   1.00
C3       0.62527    0.75620    0.52999   1.00
C3       0.69558    0.87780    0.48546   1.00
C3       0.58340    0.82228    0.51233   1.00
C2       0.79875    0.88244    0.47075   1.00
C2       0.52231    0.75417    0.54266   1.00
C3       0.79037    0.83162    0.48475   1.00
C3       0.57099    0.73266    0.54384   1.00
C3       0.74983    0.90385    0.47126   1.00
C3       0.53078    0.80028    0.52696   1.00
H1       0.73336    0.76722    0.50809   1.00
H1       0.65888    0.73931    0.53215   1.00
C5       0.64895    0.90240    0.48553   1.00
C5       0.58660    0.86534    0.49625   1.00
H1       0.82408    0.81380    0.48491   1.00
H1       0.56747    0.69951    0.55502   1.00
H1       0.75364    0.93915    0.46085   1.00
H1       0.49807    0.81905    0.52635   1.00
O3       0.66295    0.95926    0.47430   1.00
O3       0.53227    0.87507    0.49203   1.00
Si1      0.70209    1.03455    0.48488   1.00
Si1      0.47076    0.81997    0.47761   1.00
C6       0.71485    1.08258    0.46257   1.00
C6       0.64336    1.04001    0.50121   1.00
C6       0.78048    1.05413    0.49620   1.00
C6       0.47526    0.74860    0.46878   1.00
C6       0.39820    0.79217    0.49294   1.00
C6       0.46349    0.86544    0.45700   1.00
C6       0.74400    1.06237    0.44392   1.00
H2       0.66276    1.06837    0.45835   1.00
C6       0.75544    1.16263    0.46305   1.00
H2       0.59466    1.00331    0.49442   1.00
C6       0.63962    1.01709    0.52379   1.00
C6       0.64281    1.10878    0.50229   1.00
H2       0.80457    1.03983    0.48430   1.00
C6       0.83156    1.13091    0.50113   1.00
C6       0.78069    1.01512    0.51590   1.00
C6       0.53954    0.76188    0.45634   1.00
C6       0.45978    0.68877    0.48373   1.00
H2       0.43297    0.72565    0.45803   1.00
H2       0.40466    0.76199    0.50470   1.00
C6       0.39184    0.84912    0.50452   1.00
C6       0.32722    0.74470    0.48294   1.00
H2       0.43384    0.88740    0.46306   1.00
C6       0.53110    0.92761    0.44927   1.00
C6       0.42443    0.82432    0.43765   1.00
H2       0.71235    1.00836    0.44020   1.00
H2       0.79574    1.07251    0.44687   1.00
H2       0.74543    1.09084    0.43036   1.00
H2       0.73459    1.18278    0.45181   1.00
H2       0.75324    1.18338    0.47771   1.00
H2       0.80922    1.18360    0.45925   1.00
H2       0.59264    1.00909    0.53097   1.00
H2       0.63923    0.96898    0.52504   1.00
H2       0.68232    1.05566    0.53261   1.00
H2       0.63537    1.12461    0.48732   1.00
H2       0.60082    1.10386    0.51171   1.00
H2       0.69022    1.14933    0.50878   1.00
H2       0.80727    1.15293    0.51032   1.00
H2       0.87647    1.13761    0.50937   1.00
H2       0.85144    1.16080    0.48736   1.00
H2       0.77655    1.03959    0.52966   1.00
H2       0.73981    0.96254    0.51635   1.00
H2       0.82848    1.01428    0.51694   1.00
H2       0.58188    0.77093    0.46619   1.00
H2       0.52812    0.71756    0.44697   1.00
H2       0.55683    0.80522    0.44614   1.00
H2       0.45513    0.64477    0.47545   1.00
H2       0.49999    0.70286    0.49490   1.00
H2       0.41169    0.67083    0.49176   1.00
H2       0.35211    0.82654    0.51613   1.00
H2       0.43924    0.88409    0.51233   1.00
H2       0.37885    0.87895    0.49435   1.00
H2       0.32625    0.70201    0.47496   1.00
H2       0.28734    0.72293    0.49453   1.00
H2       0.31349    0.77275    0.47226   1.00
H2       0.56668    0.91248    0.44346   1.00
H2       0.52171    0.95530    0.43731   1.00
H2       0.55606    0.96332    0.46161   1.00
H2       0.41437    0.85617    0.42736   1.00
H2       0.45390    0.80615    0.42928   1.00
H2       0.37511    0.78044    0.44147   1.00
C4       0.17339    0.86114    0.49956   1.00
C4       0.19855    0.83172    0.51393   1.00
C3       0.19672    0.93207    0.49840   1.00
C3       0.24486    0.86935    0.52973   1.00
C3       0.12125    0.81757    0.48570   1.00
C3       0.17670    0.76080    0.51256   1.00
C2       0.11754    0.91626    0.47074   1.00
C2       0.24585    0.76819    0.54267   1.00
C3       0.16932    0.95887    0.48448   1.00
C3       0.26838    0.83863    0.54359   1.00
C3       0.09519    0.84575    0.47151   1.00
C3       0.19873    0.73025    0.52721   1.00
H1       0.23445    0.96636    0.50760   1.00
H1       0.26255    0.92009    0.53170   1.00
C5       0.09569    0.74617    0.48605   1.00
C5       0.13256    0.72057    0.49673   1.00
H1       0.18785    1.01053    0.48444   1.00
H1       0.30230    0.86849    0.55459   1.00
H1       0.05915    0.81410    0.46129   1.00
H1       0.17924    0.67865    0.52680   1.00
O3       0.03805    0.70337    0.47510   1.00
O3       0.12164    0.65595    0.49271   1.00
Si1      -0.03667   0.66868    0.48600   1.00
Si1      0.17546    0.64790    0.47815   1.00
C6       -0.08599   0.63286    0.46393   1.00
C6       -0.04233   0.60484    0.50253   1.00
C6       -0.05457   0.72882    0.49722   1.00
C6       0.24704    0.72278    0.46890   1.00
C6       0.20305    0.60304    0.49351   1.00
C6       0.12849    0.59451    0.45782   1.00
C6       -0.06605   0.68141    0.44509   1.00
H2       -0.07273   0.59424    0.45977   1.00
C6       -0.16598   0.59444    0.46476   1.00
H2       -0.00649   0.59180    0.49566   1.00
C6       -0.01818   0.62486    0.52498   1.00
C6       -0.11161   0.53615    0.50399   1.00
H2       -0.04034   0.76673    0.48518   1.00
C6       -0.13088   0.70442    0.50245   1.00
C6       -0.01426   0.76865    0.51669   1.00
C6       0.23410    0.77383    0.45635   1.00
C6       0.30784    0.76720    0.48354   1.00
H2       0.26895    0.70239    0.45814   1.00
H2       0.23415    0.64003    0.50508   1.00
C6       0.14611    0.54070    0.50543   1.00
C6       0.24923    0.57807    0.48344   1.00
H2       0.10617    0.54313    0.46408   1.00
C6       0.06655    0.60066    0.45026   1.00
C6       0.16834    0.59498    0.43834   1.00
H2       -0.01231   0.70288    0.44115   1.00
H2       -0.07527   0.72366    0.44796   1.00
H2       -0.09540   0.65398    0.43169   1.00
H2       -0.18719   0.55291    0.45369   1.00
H2       -0.18621   0.57234    0.47954   1.00
H2       -0.18642   0.62768    0.46093   1.00
H2       -0.01054   0.58576    0.53225   1.00
H2       0.03036    0.67222    0.52596   1.00
H2       -0.05592   0.63008    0.53390   1.00
H2       -0.12843   0.51224    0.48914   1.00
H2       -0.10689   0.49913    0.51351   1.00
H2       -0.15139   0.54404    0.51059   1.00
H2       -0.15302   0.65854    0.51183   1.00
H2       -0.13649   0.74344    0.51060   1.00
H2       -0.16136   0.69418    0.48880   1.00
H2       -0.03833   0.74086    0.53060   1.00
H2       0.03808    0.77959    0.51696   1.00
H2       -0.01258   0.81771    0.51759   1.00
H2       0.22615    0.80799    0.46614   1.00
H2       0.27812    0.80580    0.44676   1.00
H2       0.19019    0.74780    0.44635   1.00
H2       0.35170    0.80575    0.47503   1.00
H2       0.29484    0.79429    0.49469   1.00
H2       0.32552    0.73688    0.49160   1.00
H2       0.16879    0.52359    0.51702   1.00
H2       0.11202    0.55419    0.51331   1.00
H2       0.11532    0.49755    0.49547   1.00
H2       0.29186    0.61905    0.47522   1.00
H2       0.27110    0.56001    0.49501   1.00
H2       0.22021    0.53592    0.47296   1.00
H2       0.08210    0.65124    0.44427   1.00
H2       0.03790    0.56317    0.43848   1.00
H2       0.03158    0.59100    0.46273   1.00
H2       0.13556    0.55278    0.42827   1.00
H2       0.18673    0.64232    0.42979   1.00
H2       0.21195    0.58896    0.44204   1.00
C4       0.31146    0.14764    1.00028   1.00
C4       0.36736    0.17634    0.98635   1.00
C3       0.29831    0.18688    1.01445   1.00
C3       0.41909    0.24609    0.98645   1.00
C3       0.26646    0.07559    1.00038   1.00
C3       0.37231    0.13349    0.97137   1.00
C2       0.19933    0.08538    1.02862   1.00
C2       0.47961    0.23017    0.95797   1.00
C3       0.24405    0.15663    1.02831   1.00
C3       0.47334    0.27244    0.97254   1.00
C3       0.21125    0.04618    1.01423   1.00
C3       0.42893    0.16042    0.95806   1.00
H1       0.32764    0.23862    1.01507   1.00
H1       0.41913    0.27972    0.99672   1.00
C5       0.27673    0.03342    0.98660   1.00
C5       0.32115    0.06392    0.96986   1.00
H1       0.23733    0.18754    1.03831   1.00
H1       0.50895    0.32341    0.97321   1.00
H1       0.17828    -0.00535   1.01376   1.00
H1       0.43403    0.12817    0.94829   1.00
O3       0.24060    -0.03638   0.98897   1.00
O3       0.31757    0.02523    0.95319   1.00
Si1      0.27351    -0.07430   1.00196   1.00
Si1      0.27723    0.02776    0.93300   1.00
C6       0.20026    -0.15622   1.00234   1.00
C6       0.33868    -0.07322   0.98706   1.00
C6       0.29823    -0.04144   1.02673   1.00
C6       0.24248    0.08243    0.93313   1.00
C6       0.33938    0.05362    0.91391   1.00
C6       0.21307    -0.05655   0.92772   1.00
C6       0.13180    -0.15901   1.00820   1.00
H2       0.19473    -0.17088   0.98637   1.00
C6       0.19972    -0.21652   1.01425   1.00
H2       0.32255    -0.06950   0.97174   1.00
C6       0.41282    -0.01150   0.98934   1.00
C6       0.34680    -0.13792   0.98694   1.00
H2       0.25347    -0.03968   1.03210   1.00
C6       0.31036    -0.08633   1.04241   1.00
C6       0.36105    0.03216    1.02978   1.00
C6       0.19044    0.07254    0.95022   1.00
C6       0.29102    0.16127    0.93088   1.00
H2       0.21295    0.06823    0.91910   1.00
H2       0.37532    0.10675    0.91762   1.00
C6       0.38265    0.01714    0.91366   1.00
C6       0.31593    0.05306    0.89157   1.00
H2       0.23995    -0.07854   0.91984   1.00
C6       0.17923    -0.10378   0.94641   1.00
C6       0.15322    -0.06757   0.91339   1.00
H2       0.12166    -0.12619   0.99840   1.00
H2       0.13292    -0.14285   1.02388   1.00
H2       0.08836    -0.21062   1.00656   1.00
H2       0.16746    -0.26473   1.00640   1.00
H2       0.25013    -0.21077   1.01574   1.00
H2       0.17877    -0.22230   1.02951   1.00
H2       0.44462    -0.00940   0.97656   1.00
H2       0.41393    0.03709    0.98949   1.00
H2       0.43690    -0.01573   1.00318   1.00
H2       0.29949    -0.18340   0.98250   1.00
H2       0.38535    -0.13273   0.97596   1.00
H2       0.36244    -0.14642   1.00182   1.00
H2       0.34668    -0.10054   1.03657   1.00
H2       0.33005    -0.05995   1.05687   1.00
H2       0.26301    -0.13234   1.04618   1.00
H2       0.40907    0.03191    1.03057   1.00
H2       0.36654    0.06752    1.01788   1.00
H2       0.35583    0.05387    1.04403   1.00
H2       0.21609    0.09855    0.96416   1.00
H2       0.15853    0.09375    0.94553   1.00
H2       0.15626    0.01899    0.95374   1.00
H2       0.26153    0.18686    0.92835   1.00
H2       0.32178    0.18397    0.94438   1.00
H2       0.32520    0.17407    0.91792   1.00
H2       0.42690    0.04428    0.90371   1.00
H2       0.40230    0.01643    0.92875   1.00
H2       0.35320    -0.03533   0.90828   1.00
H2       0.28686    0.07941    0.89017   1.00
H2       0.36019    0.07932    0.88156   1.00
H2       0.28478    0.00108    0.88589   1.00
H2       0.15256    -0.08558   0.95607   1.00
H2       0.14302    -0.15602   0.94182   1.00
H2       0.21800    -0.10591   0.95555   1.00
H2       0.12294    -0.12105   0.90884   1.00
H2       0.11894    -0.05352   0.92087   1.00
H2       0.17193    -0.03785   0.89948   1.00
C4       0.82704    0.68855    1.00016   1.00
C4       0.80200    0.63384    0.98584   1.00
C3       0.81436    0.74380    0.99876   1.00
C3       0.76715    0.63210    0.96774   1.00
C3       0.86799    0.68910    1.01670   1.00
C3       0.81187    0.57733    0.98968   1.00
C2       0.88233    0.79897    1.02917   1.00
C2       0.75428    0.52209    0.95742   1.00
C3       0.84153    0.79770    1.01279   1.00
C3       0.74337    0.57748    0.95401   1.00
C3       0.89387    0.74330    1.03091   1.00
C3       0.79009    0.52422    0.97522   1.00
H1       0.78481    0.74639    0.98754   1.00
H1       0.75839    0.67065    0.96394   1.00
C5       0.88258    0.63538    1.01900   1.00
C5       0.84391    0.57432    1.00780   1.00
H1       0.83105    0.83654    1.01092   1.00
H1       0.71799    0.57869    0.94126   1.00
H1       0.92158    0.74205    1.04301   1.00
H1       0.80139    0.48632    0.97757   1.00
O3       0.93097    0.64165    1.03284   1.00
O3       0.84194    0.51479    1.01371   1.00
Si1      1.00982    0.67147    1.02559   1.00
Si1      0.77589    0.45797    1.02635   1.00
C6       1.04509    0.67803    1.04992   1.00
C6       1.01252    0.60749    1.01106   1.00
C6       1.04526    0.75197    1.01371   1.00
C6       0.70845    0.47415    1.03112   1.00
C6       0.74597    0.38444    1.01135   1.00
C6       0.80637    0.44348    1.04932   1.00
C6       1.02327    0.71274    1.06659   1.00
H2       1.02195    0.62465    1.05449   1.00
C6       1.12393    0.70885    1.05286   1.00
H2       0.96854    0.56132    1.01688   1.00
C6       1.00143    0.60663    0.98762   1.00
C6       1.07478    0.59609    1.01372   1.00
H2       1.03097    0.78023    1.02415   1.00
C6       1.12486    0.79444    1.01184   1.00
C6       1.01904    0.75792    0.99215   1.00
C6       0.72525    0.54105    1.04269   1.00
C6       0.65881    0.46669    1.01348   1.00
H2       0.67610    0.43276    1.04145   1.00
H2       0.72515    0.39584    0.99796   1.00
C6       0.80137    0.36846    1.00313   1.00
C6       0.68724    0.31620    1.02024   1.00
H2       0.82402    0.40820    1.04519   1.00
C6       0.86982    0.50616    1.05880   1.00
C6       0.75434    0.40856    1.06708   1.00
H2       0.96786    0.68746    1.06806   1.00
H2       1.04213    0.76642    1.06307   1.00
H2       1.04303    0.71008    1.08149   1.00
H2       1.13361    0.68363    1.06551   1.00
H2       1.14882    0.70295    1.03955   1.00
H2       1.14983    0.76314    1.05654   1.00
H2       0.98982    0.55751    0.98114   1.00
H2       0.95864    0.61373    0.98379   1.00
H2       1.04703    0.64605    0.98003   1.00
H2       1.08110    0.58595    1.02952   1.00
H2       1.06777    0.55177    1.00509   1.00
H2       1.12189    0.64028    1.00844   1.00
H2       1.14486    0.76483    1.00449   1.00
H2       1.14189    0.84124    1.00306   1.00
H2       1.14880    0.81129    1.02660   1.00
H2       1.04657    0.74938    0.97997   1.00
H2       0.96530    0.72246    0.98978   1.00
H2       1.02652    0.80913    0.99001   1.00
H2       0.74471    0.58470    1.03251   1.00
H2       0.67932    0.53598    1.04981   1.00
H2       0.76248    0.55294    1.05472   1.00
H2       0.61475    0.46879    1.01939   1.00
H2       0.68304    0.50724    1.00231   1.00
H2       0.63846    0.41792    1.00566   1.00
H2       0.77981    0.32929    0.99133   1.00
H2       0.84405    0.41350    0.99624   1.00
H2       0.82154    0.35010    1.01506   1.00
H2       0.64508    0.32202    1.02584   1.00
H2       0.66637    0.27674    1.00851   1.00
H2       0.70544    0.29734    1.03261   1.00
H2       0.85939    0.54669    1.06292   1.00
H2       0.88784    0.49202    1.07231   1.00
H2       0.91155    0.52699    1.04798   1.00
H2       0.77674    0.39301    1.07919   1.00
H2       0.73902    0.44309    1.07371   1.00
H2       0.70855    0.36264    1.06205   1.00
C4       0.86114    0.17340    1.00044   1.00
C4       0.83172    0.19855    0.98607   1.00
C3       0.93208    0.19683    1.00163   1.00
C3       0.86939    0.24499    0.97031   1.00
C3       0.81754    0.12114    1.01427   1.00
C3       0.76077    0.17658    0.98741   1.00
C2       0.91626    0.11754    1.02926   1.00
C2       0.76819    0.24585    0.95733   1.00
C3       0.95888    0.16944    1.01556   1.00
C3       0.83867    0.26851    0.95644   1.00
C3       0.84573    0.09507    1.02846   1.00
C3       0.73023    0.19862    0.97276   1.00
H1       0.96638    0.23465    0.99246   1.00
H1       0.92015    0.26277    0.96835   1.00
C5       0.74613    0.09546    1.01389   1.00
C5       0.72049    0.13230    1.00322   1.00
H1       1.01056    0.18805    1.01562   1.00
H1       0.86855    0.30252    0.94546   1.00
H1       0.81406    0.05894    1.03866   1.00
H1       0.67860    0.17904    0.97315   1.00
O3       0.70333    0.03773    1.02480   1.00
O3       0.65580    0.12125    1.00721   1.00
Si1      0.66882    -0.03692   1.01387   1.00
Si1      0.64756    0.17491    1.02179   1.00
C6       0.63294    -0.08639   1.03590   1.00
C6       0.60503    -0.04261   0.99732   1.00
C6       0.72912    -0.05461   1.00266   1.00
C6       0.72231    0.24652    1.03109   1.00
C6       0.60268    0.20247    1.00642   1.00
C6       0.59409    0.12776    1.04208   1.00
C6       0.68139    -0.06649   1.05477   1.00
H2       0.59424    -0.07324   1.04005   1.00
C6       0.59464    -0.16638   1.03503   1.00
H2       0.59187    -0.00686   1.00419   1.00
C6       0.62514    -0.01831   0.97488   1.00
C6       0.53642    -0.11195   0.99580   1.00
H2       0.76698    -0.04039   1.01472   1.00
C6       0.70488    -0.13087   0.99740   1.00
C6       0.76902    -0.01416   0.98322   1.00
C6       0.77337    0.23361    1.04364   1.00
C6       0.76674    0.30743    1.01648   1.00
H2       0.70180    0.26829    1.04185   1.00
H2       0.63972    0.23369    0.99487   1.00
C6       0.54047    0.14554    0.99446   1.00
C6       0.57754    0.24850    1.01650   1.00
H2       0.54274    0.10539    1.03579   1.00
C6       0.60033    0.06585    1.04962   1.00
C6       0.59437    0.16745    1.06157   1.00
H2       0.70275    -0.01278   1.05873   1.00
H2       0.72372    -0.07560   1.05191   1.00
H2       0.65392    -0.09594   1.06815   1.00
H2       0.55306    -0.18771   1.04608   1.00
H2       0.57265    -0.18654   1.02024   1.00
H2       0.62794    -0.18675   1.03886   1.00
H2       0.58604    -0.01071   0.96760   1.00
H2       0.67246    0.03029    0.97393   1.00
H2       0.63050    -0.05594   0.96594   1.00
H2       0.51243    -0.12888   1.01064   1.00
H2       0.49940    -0.10724   0.98628   1.00
H2       0.54443    -0.15163   0.98919   1.00
H2       0.65905    -0.15303   0.98799   1.00
H2       0.74399    -0.13634   0.98925   1.00
H2       0.69461    -0.16142   1.01103   1.00
H2       0.74133    -0.03817   0.96928   1.00
H2       0.77987    0.03816    0.98297   1.00
H2       0.81813    -0.01237   0.98233   1.00
H2       0.80764    0.22580    1.03387   1.00
H2       0.80523    0.27759    1.05326   1.00
H2       0.74734    0.18964    1.05362   1.00
H2       0.80520    0.35127    1.02502   1.00
H2       0.79395    0.29456    1.00534   1.00
H2       0.73641    0.32508    1.00841   1.00
H2       0.52336    0.16823    0.98287   1.00
H2       0.55408    0.11156    0.98657   1.00
H2       0.49728    0.11463    1.00439   1.00
H2       0.61843    0.29112    1.02475   1.00
H2       0.55948    0.27038    1.00493   1.00
H2       0.53535    0.21936    1.02695   1.00
H2       0.65090    0.08145    1.05564   1.00
H2       0.56279    0.03708    1.06137   1.00
H2       0.59079    0.03097    1.03714   1.00
H2       0.55213    0.13457    1.07162   1.00
H2       0.64167    0.18587    1.07015   1.00
H2       0.58828    0.21104    1.05789   1.00
C4       0.52085    1.01806    0.83488   1.00
C4       0.49150    0.96352    0.82050   1.00
C3       0.48688    1.02019    0.85272   1.00
C3       0.42314    0.90888    0.82157   1.00
C3       0.58748    1.07440    0.83120   1.00
C3       0.53230    0.96287    0.80409   1.00
C2       0.58234    1.13180    0.86269   1.00
C2       0.43545    0.85592    0.79056   1.00
C3       0.51657    1.07564    0.86619   1.00
C3       0.39604    0.85621    0.80713   1.00
C3       0.61705    1.12926    0.84517   1.00
C3       0.50314    0.91090    0.78922   1.00
H1       0.43967    0.98141    0.85650   1.00
H1       0.39089    0.90596    0.83280   1.00
C5       0.62424    1.07545    0.81364   1.00
C5       0.60172    1.01433    0.80247   1.00
H1       0.48937    1.07459    0.87878   1.00
H1       0.34645    0.81771    0.80877   1.00
H1       0.66562    1.16842    0.84263   1.00
H1       0.53169    0.91353    0.77687   1.00
O3       0.68313    1.13438    0.80840   1.00
O3       0.64537    1.00755    0.78926   1.00
Si1      0.67968    1.18795    0.79254   1.00
Si1      0.68238    0.96522    0.79665   1.00
C6       0.76505    1.25398    0.79532   1.00
C6       0.66504    1.15110    0.76818   1.00
C6       0.62208    1.21494    0.80005   1.00
C6       0.66243    0.92740    0.82099   1.00
C6       0.65734    0.90136    0.77814   1.00
C6       0.77101    1.02036    0.79438   1.00
C6       0.79149    1.27301    0.81768   1.00
H2       0.79331    1.23110    0.78884   1.00
C6       0.79213    1.32395    0.78407   1.00
H2       0.68549    1.11673    0.76972   1.00
C6       0.58963    1.10560    0.76091   1.00
C6       0.70339    1.19809    0.74968   1.00
H2       0.63548    1.22800    0.81600   1.00
C6       0.62969    1.28073    0.78973   1.00
C6       0.54325    1.16303    0.79946   1.00
C6       0.67466    0.97457    0.83971   1.00
C6       0.59202    0.86125    0.82462   1.00
H2       0.69915    0.90987    0.82267   1.00
H2       0.60312    0.86771    0.78108   1.00
C6       0.66184    0.92494    0.75558   1.00
C6       0.69100    0.85563    0.77888   1.00
H2       0.78126    1.01802    0.77831   1.00
C6       0.79761    1.09732    0.79869   1.00
C6       0.81953    1.00182    0.80621   1.00
H2       0.78480    1.22853    0.82610   1.00
H2       0.76452    1.29448    0.82582   1.00
H2       0.84597    1.31044    0.81805   1.00
H2       0.84576    1.34488    0.78000   1.00
H2       0.76434    1.31962    0.77019   1.00
H2       0.78965    1.36215    0.79358   1.00
H2       0.58708    1.07471    0.74783   1.00
H2       0.55755    1.06997    0.77258   1.00
H2       0.56746    1.13669    0.75635   1.00
H2       0.75850    1.22526    0.75196   1.00
H2       0.69399    1.16832    0.73577   1.00
H2       0.68670    1.23510    0.74699   1.00
H2       0.62859    1.27641    0.77322   1.00
H2       0.58906    1.29083    0.79425   1.00
H2       0.67678    1.32583    0.79426   1.00
H2       0.52114    1.16177    0.78465   1.00
H2       0.53008    1.11117    0.80303   1.00
H2       0.51700    1.17776    0.81055   1.00
H2       0.63213    0.98343    0.84213   1.00
H2       0.67999    0.95098    0.85354   1.00
H2       0.72099    1.02382    0.83820   1.00
H2       0.59124    0.83889    0.83940   1.00
H2       0.54980    0.87129    0.82451   1.00
H2       0.58168    0.82191    0.81338   1.00
H2       0.63466    0.88078    0.74559   1.00
H2       0.63812    0.95638    0.75362   1.00
H2       0.71446    0.95409    0.75030   1.00
H2       0.68838    0.83507    0.79403   1.00
H2       0.66443    0.81201    0.76866   1.00
H2       0.74435    0.88390    0.77416   1.00
H2       0.78791    1.10622    0.81427   1.00
H2       0.85229    1.12844    0.79580   1.00
H2       0.77232    1.11586    0.78870   1.00
H2       0.87231    1.03357    0.80117   1.00
H2       0.81814    1.00964    0.82252   1.00
H2       0.80614    0.94899    0.80369   1.00
C4       -0.01821   0.50202    0.83483   1.00
C4       0.03626    0.52733    0.82043   1.00
C3       -0.02493   0.45820    0.85116   1.00
C3       0.08586    0.50646    0.81981   1.00
C3       -0.06972   0.52040    0.83276   1.00
C3       0.04216    0.57639    0.80577   1.00
C2       -0.13172   0.45032    0.86272   1.00
C2       0.14400    0.57973    0.79053   1.00
C3       -0.08030   0.43272    0.86466   1.00
C3       0.13863    0.53239    0.80540   1.00
C3       -0.12449   0.49518    0.84676   1.00
C3       0.09398    0.59968    0.79084   1.00
H1       0.01032    0.44369    0.85377   1.00
H1       0.08487    0.47149    0.82973   1.00
C5       -0.06604   0.56407    0.81676   1.00
C5       -0.00394   0.60153    0.80595   1.00
H1       -0.08272   0.40082    0.87609   1.00
H1       0.17339    0.51590    0.80579   1.00
H1       -0.16004   0.51031    0.84541   1.00
H1       0.09489    0.63144    0.77967   1.00
O3       -0.12111   0.57250    0.81278   1.00
O3       0.00863    0.65817    0.79470   1.00
Si1      -0.17740   0.52448    0.79585   1.00
Si1      0.05723    0.73379    0.80434   1.00
C6       -0.23715   0.55113    0.80075   1.00
C6       -0.13954   0.55218    0.77179   1.00
C6       -0.21269   0.43638    0.80050   1.00
C6       0.09397    0.73962    0.82845   1.00
C6       0.12214    0.77376    0.78618   1.00
C6       0.00947    0.77580    0.80456   1.00
C6       -0.25483   0.55312    0.82365   1.00
H2       -0.20960   0.60434    0.79588   1.00
C6       -0.30733   0.51811    0.78931   1.00
H2       -0.10105   0.60511    0.77479   1.00
C6       -0.10011   0.51836    0.76243   1.00
C6       -0.18400   0.55495    0.75404   1.00
H2       -0.22539   0.43257    0.81661   1.00
C6       -0.28074   0.38657    0.78928   1.00
C6       -0.16712   0.40262    0.79776   1.00
C6       0.04515    0.70177    0.84662   1.00
C6       0.15537    0.72647    0.83051   1.00
H2       0.11660    0.79381    0.83192   1.00
H2       0.15122    0.74744    0.78759   1.00
C6       0.09855    0.76443    0.76350   1.00
C6       0.17413    0.85140    0.78915   1.00
H2       0.01362    0.79438    0.78905   1.00
C6       -0.06860   0.73026    0.80842   1.00
C6       0.03421    0.83968    0.81861   1.00
H2       -0.20905   0.58467    0.83260   1.00
H2       -0.28080   0.50199    0.83025   1.00
H2       -0.28796   0.57503    0.82547   1.00
H2       -0.32305   0.55609    0.78701   1.00
H2       -0.30553   0.49800    0.77450   1.00
H2       -0.34812   0.47650    0.79792   1.00
H2       -0.06747   0.54916    0.74993   1.00
H2       -0.06667   0.51395    0.77342   1.00
H2       -0.13524   0.46777    0.75641   1.00
H2       -0.20631   0.58642    0.75798   1.00
H2       -0.15331   0.57783    0.74042   1.00
H2       -0.22479   0.50389    0.74999   1.00
H2       -0.27580   0.39529    0.77292   1.00
H2       -0.29619   0.33305    0.79195   1.00
H2       -0.32292   0.39212    0.79479   1.00
H2       -0.16787   0.38591    0.78218   1.00
H2       -0.11416   0.43599    0.80178   1.00
H2       -0.18599   0.35750    0.80743   1.00
H2       0.03083    0.64816    0.84715   1.00
H2       0.07016    0.72448    0.86102   1.00
H2       -0.00131   0.70478    0.84602   1.00
H2       0.17836    0.74131    0.84559   1.00
H2       0.13994    0.67298    0.82852   1.00
H2       0.19594    0.75635    0.81969   1.00
H2       0.14221    0.78076    0.75335   1.00
H2       0.06278    0.71096    0.76000   1.00
H2       0.07409    0.79411    0.75979   1.00
H2       0.19499    0.86250    0.80449   1.00
H2       0.21731    0.86794    0.77877   1.00
H2       0.15067    0.88247    0.78604   1.00
H2       -0.07958   0.70629    0.82334   1.00
H2       -0.09496   0.75941    0.80713   1.00
H2       -0.09072   0.69003    0.79713   1.00
H2       0.00704    0.86702    0.81510   1.00
H2       0.02531    0.82516    0.83460   1.00
H2       0.08836    0.87589    0.81658   1.00
C4       0.49796    0.47974    0.83483   1.00
C4       0.47266    0.50892    0.82043   1.00
C3       0.54165    0.51680    0.85119   1.00
C3       0.49340    0.57936    0.81985   1.00
C3       0.47973    0.40991    0.83272   1.00
C3       0.42373    0.46579    0.80574   1.00
C2       0.54968    0.41795    0.86272   1.00
C2       0.42027    0.56426    0.79053   1.00
C3       0.56713    0.48691    0.86469   1.00
C3       0.46748    0.60620    0.80544   1.00
C3       0.50495    0.38035    0.84672   1.00
C3       0.40045    0.49432    0.79081   1.00
H1       0.55605    0.56653    0.85382   1.00
H1       0.52827    0.61331    0.82979   1.00
C5       0.43620    0.36997    0.81670   1.00
C5       0.39872    0.39456    0.80588   1.00
H1       0.59893    0.51637    0.87614   1.00
H1       0.48388    0.65743    0.80585   1.00
H1       0.48992    0.32971    0.84536   1.00
H1       0.36879    0.46350    0.77962   1.00
O3       0.42793    0.30654    0.81269   1.00
O3       0.34218    0.35049    0.79460   1.00
Si1      0.47613    0.29849    0.79578   1.00
Si1      0.26648    0.32327    0.80419   1.00
C6       0.44961    0.21209    0.80064   1.00
C6       0.44853    0.30873    0.77171   1.00
C6       0.56417    0.35140    0.80048   1.00
C6       0.26042    0.35398    0.82831   1.00
C6       0.22653    0.34822    0.78603   1.00
C6       0.22462    0.23352    0.80437   1.00
C6       0.44750    0.19229    0.82353   1.00
H2       0.39642    0.18637    0.79574   1.00
C6       0.48281    0.17512    0.78920   1.00
H2       0.39556    0.29418    0.77469   1.00
C6       0.48229    0.38203    0.76239   1.00
C6       0.44598    0.26166    0.75394   1.00
H2       0.56790    0.34243    0.81659   1.00
C6       0.61415    0.33336    0.78927   1.00
C6       0.59782    0.43074    0.79778   1.00
C6       0.29822    0.34300    0.84649   1.00
C6       0.27342    0.42848    0.83041   1.00
H2       0.20622    0.32233    0.83175   1.00
H2       0.25275    0.40361    0.78746   1.00
C6       0.23605    0.33414    0.76335   1.00
C6       0.14885    0.32242    0.78895   1.00
H2       0.20615    0.21915    0.78885   1.00
C6       0.27026    0.20109    0.80823   1.00
C6       0.16067    0.19420    0.81837   1.00
H2       0.41584    0.20639    0.83247   1.00
H2       0.49859    0.21750    0.83016   1.00
H2       0.42568    0.13726    0.82532   1.00
H2       0.44492    0.12141    0.78686   1.00
H2       0.50300    0.19714    0.77440   1.00
H2       0.52441    0.17598    0.79782   1.00
H2       0.45153    0.38388    0.74988   1.00
H2       0.48655    0.41978    0.77340   1.00
H2       0.53294    0.39762    0.75640   1.00
H2       0.41456    0.20784    0.75785   1.00
H2       0.42314    0.26949    0.74032   1.00
H2       0.49709    0.27204    0.74992   1.00
H2       0.60553    0.32967    0.77291   1.00
H2       0.66763    0.37148    0.79198   1.00
H2       0.60867    0.28564    0.79476   1.00
H2       0.61461    0.44682    0.78222   1.00
H2       0.56434    0.45020    0.80179   1.00
H2       0.64287    0.45700    0.80748   1.00
H2       0.35180    0.38236    0.84706   1.00
H2       0.27538    0.34515    0.86089   1.00
H2       0.29531    0.29358    0.84587   1.00
H2       0.25844    0.43649    0.84548   1.00
H2       0.32689    0.46662    0.82845   1.00
H2       0.24354    0.43915    0.81958   1.00
H2       0.21971    0.36147    0.75320   1.00
H2       0.28956    0.35196    0.75988   1.00
H2       0.20648    0.28002    0.75961   1.00
H2       0.13762    0.33204    0.80429   1.00
H2       0.13229    0.34904    0.77858   1.00
H2       0.11788    0.26790    0.78582   1.00
H2       0.29412    0.21402    0.82316   1.00
H2       0.24120    0.14558    0.80691   1.00
H2       0.31056    0.21934    0.79697   1.00
H2       0.13344    0.13970    0.81484   1.00
H2       0.17508    0.19974    0.83437   1.00
H2       0.12439    0.21205    0.81634   1.00
C4       0.35616    0.19494    0.33349   1.00
C4       0.30015    0.16514    0.34736   1.00
C3       0.38004    0.25954    0.32420   1.00
C3       0.25861    0.19400    0.35190   1.00
C3       0.38991    0.15808    0.32826   1.00
C3       0.28437    0.10309    0.35740   1.00
C2       0.46757    0.25017    0.30481   1.00
C2       0.18683    0.10094    0.37526   1.00
C3       0.43394    0.28626    0.31017   1.00
C3       0.20390    0.16316    0.36561   1.00
C3       0.44502    0.18649    0.31436   1.00
C3       0.22724    0.07133    0.37049   1.00
H1       0.35913    0.28917    0.32742   1.00
H1       0.26660    0.23806    0.34530   1.00
C5       0.36859    0.09321    0.33700   1.00
C5       0.32519    0.07270    0.35421   1.00
H1       0.44868    0.33302    0.30384   1.00
H1       0.17598    0.18665    0.36844   1.00
H1       0.46996    0.16032    0.31118   1.00
H1       0.21400    0.02475    0.37655   1.00
O3       0.39336    0.05306    0.32946   1.00
O3       0.31942    0.02086    0.36662   1.00
Si1      0.35066    -0.00369   0.31201   1.00
Si1      0.36207    0.04067    0.38786   1.00
C6       0.41310    -0.02645   0.30671   1.00
C6       0.27862    -0.07122   0.32379   1.00
C6       0.33291    0.03092    0.29041   1.00
C6       0.41147    0.12784    0.39441   1.00
C6       0.29820    -0.00190   0.40616   1.00
C6       0.41360    0.00274    0.38739   1.00
C6       0.48755    0.03431    0.30358   1.00
H2       0.41459    -0.05084   0.32084   1.00
C6       0.40198    -0.07893   0.28949   1.00
H2       0.29561    -0.06669   0.33949   1.00
C6       0.21119    -0.06808   0.32455   1.00
C6       0.25609    -0.14607   0.31733   1.00
H2       0.38249    0.07573    0.28724   1.00
C6       0.31161    -0.01300   0.27056   1.00
C6       0.28038    0.05686    0.29205   1.00
C6       0.46755    0.17678    0.37916   1.00
C6       0.37512    0.16694    0.40221   1.00
H2       0.43937    0.12617    0.40769   1.00
H2       0.27065    0.02618    0.40628   1.00
C6       0.24335    -0.07742   0.40114   1.00
C6       0.32162    -0.00165   0.42849   1.00
H2       0.37899    -0.05013   0.39175   1.00
C6       0.44210    -0.00167   0.36627   1.00
C6       0.47514    0.03011    0.40249   1.00
H2       0.50465    0.06895    0.31655   1.00
H2       0.49114    0.06380    0.29004   1.00
H2       0.52376    0.01603    0.30192   1.00
H2       0.42620    -0.10858   0.29367   1.00
H2       0.34846    -0.11479   0.28657   1.00
H2       0.42492    -0.05388   0.27513   1.00
H2       0.17588    -0.10413   0.33574   1.00
H2       0.22028    -0.01798   0.32905   1.00
H2       0.18532    -0.08121   0.30990   1.00
H2       0.29756    -0.15704   0.31912   1.00
H2       0.21425    -0.18312   0.32681   1.00
H2       0.23859    -0.15556   0.30161   1.00
H2       0.26855    -0.06403   0.27332   1.00
H2       0.29705    0.01024    0.25844   1.00
H2       0.35375    -0.01740   0.26441   1.00
H2       0.22812    0.01614    0.28934   1.00
H2       0.28083    0.07896    0.30666   1.00
H2       0.29193    0.09637    0.28068   1.00
H2       0.44638    0.19408    0.36726   1.00
H2       0.50636    0.22231    0.38699   1.00
H2       0.49373    0.15297    0.37200   1.00
H2       0.41242    0.21685    0.40829   1.00
H2       0.34765    0.17602    0.39021   1.00
H2       0.33947    0.13992    0.41450   1.00
H2       0.20004    -0.09547   0.41153   1.00
H2       0.22315    -0.08201   0.38580   1.00
H2       0.26383    -0.11182   0.40244   1.00
H2       0.35870    0.04965    0.43355   1.00
H2       0.27810    -0.02068   0.43884   1.00
H2       0.34401    -0.03434   0.43019   1.00
H2       0.47584    0.04857    0.35983   1.00
H2       0.47006    -0.02935   0.36710   1.00
H2       0.40027    -0.02924   0.35573   1.00
H2       0.49638    -0.00392   0.40292   1.00
H2       0.51609    0.08065    0.39805   1.00
H2       0.45982    0.03324    0.41794   1.00
C4       0.83444    0.64181    0.33415   1.00
C4       0.86160    0.69773    0.34807   1.00
C3       0.84182    0.58352    0.33656   1.00
C3       0.90403    0.70381    0.36473   1.00
C3       0.79870    0.64424    0.31662   1.00
C3       0.84570    0.75079    0.34537   1.00
C2       0.78095    0.53242    0.30480   1.00
C2       0.91578    0.81318    0.37527   1.00
C3       0.81617    0.53049    0.32224   1.00
C3       0.92987    0.75961    0.37808   1.00
C3       0.77209    0.58962    0.30255   1.00
C3       0.87463    0.80800    0.35847   1.00
H1       0.86584    0.57777    0.34882   1.00
H1       0.91776    0.66811    0.36760   1.00
C5       0.78950    0.70105    0.31331   1.00
C5       0.80157    0.74688    0.32953   1.00
H1       0.82348    0.48984    0.32471   1.00
H1       0.95981    0.76100    0.38997   1.00
H1       0.74493    0.59119    0.29035   1.00
H1       0.86630    0.84759    0.35557   1.00
O3       0.76531    0.70863    0.29489   1.00
O3       0.77485    0.79000    0.32905   1.00
Si1      0.81887    0.75459    0.27710   1.00
Si1      0.70575    0.76947    0.34197   1.00
C6       0.75835    0.73358    0.25754   1.00
C6       0.85507    0.84082    0.28427   1.00
C6       0.87822    0.72833    0.27106   1.00
C6       0.66997    0.69421    0.35672   1.00
C6       0.73071    0.84016    0.35791   1.00
C6       0.64483    0.76653    0.32476   1.00
C6       0.70498    0.65583    0.25509   1.00
H2       0.72916    0.75700    0.26287   1.00
C6       0.78119    0.76094    0.23538   1.00
H2       0.81580    0.83935    0.29420   1.00
C6       0.92210    0.87370    0.29714   1.00
C6       0.86717    0.89479    0.26755   1.00
H2       0.84548    0.67316    0.26951   1.00
C6       0.91746    0.75388    0.25045   1.00
C6       0.93519    0.73998    0.28680   1.00
C6       0.64994    0.62546    0.34576   1.00
C6       0.70507    0.69335    0.37711   1.00
H2       0.62176    0.68950    0.36163   1.00
H2       0.76557    0.83679    0.36865   1.00
C6       0.77277    0.91191    0.34770   1.00
C6       0.67395    0.84230    0.37086   1.00
H2       0.65869    0.81985    0.32293   1.00
C6       0.64682    0.74131    0.30290   1.00
C6       0.56809    0.72776    0.33135   1.00
H2       0.67775    0.63382    0.26925   1.00
H2       0.72958    0.62703    0.25040   1.00
H2       0.66639    0.64771    0.24375   1.00
H2       0.74279    0.76973    0.22815   1.00
H2       0.82939    0.80868    0.23487   1.00
H2       0.78650    0.72452    0.22580   1.00
H2       0.93096    0.92125    0.30413   1.00
H2       0.91972    0.84075    0.30950   1.00
H2       0.96638    0.88572    0.28773   1.00
H2       0.82014    0.88163    0.25945   1.00
H2       0.88483    0.94520    0.27417   1.00
H2       0.90567    0.89959    0.25665   1.00
H2       0.94265    0.80934    0.24925   1.00
H2       0.95639    0.73911    0.24865   1.00
H2       0.88340    0.73124    0.23760   1.00
H2       0.98052    0.79022    0.28520   1.00
H2       0.91878    0.73530    0.30244   1.00
H2       0.95128    0.70226    0.28448   1.00
H2       0.69354    0.61790    0.34402   1.00
H2       0.61165    0.58233    0.35457   1.00
H2       0.62812    0.62239    0.33082   1.00
H2       0.67209    0.64716    0.38577   1.00
H2       0.75291    0.69405    0.37465   1.00
H2       0.71501    0.73616    0.38690   1.00
H2       0.79563    0.95183    0.35925   1.00
H2       0.81468    0.91529    0.33859   1.00
H2       0.74115    0.92372    0.33793   1.00
H2       0.64309    0.79469    0.37907   1.00
H2       0.69681    0.88290    0.38221   1.00
H2       0.64028    0.85231    0.36142   1.00
H2       0.63623    0.68875    0.30276   1.00
H2       0.61024    0.74483    0.29290   1.00
H2       0.69699    0.77307    0.29634   1.00
H2       0.53712    0.73840    0.32086   1.00
H2       0.54739    0.67261    0.33153   1.00
H2       0.56108    0.74346    0.34636   1.00
C4       0.80715    0.16528    0.33414   1.00
C4       0.83597    0.13816    0.34805   1.00
C3       0.74020    0.15502    0.33602   1.00
C3       0.79871    0.09304    0.36412   1.00
C3       0.84666    0.20405    0.31716   1.00
C3       0.90596    0.15693    0.34596   1.00
C2       0.75138    0.21898    0.30481   1.00
C2       0.89751    0.08429    0.37526   1.00
C3       0.71289    0.18078    0.32171   1.00
C3       0.82876    0.06733    0.37747   1.00
C3       0.81865    0.23068    0.30310   1.00
C3       0.93446    0.12816    0.35904   1.00
H1       0.70938    0.12874    0.34788   1.00
H1       0.74853    0.07719    0.36653   1.00
C5       0.91399    0.21622    0.31439   1.00
C5       0.94701    0.20377    0.33075   1.00
H1       0.66399    0.17131    0.32378   1.00
H1       0.79950    0.03536    0.38893   1.00
H1       0.84825    0.25998    0.29132   1.00
H1       0.98334    0.13868    0.35654   1.00
O3       0.94758    0.24354    0.29640   1.00
O3       1.01716    0.23288    0.33097   1.00
Si1      0.94425    0.19311    0.27818   1.00
Si1      1.06220    0.30083    0.34474   1.00
C6       0.98431    0.25641    0.25936   1.00
C6       0.99597    0.15889    0.28543   1.00
C6       0.86019    0.13227    0.27108   1.00
C6       1.01863    0.33229    0.35946   1.00
C6       1.10800    0.27630    0.36081   1.00
C6       1.12081    0.36500    0.32841   1.00
C6       0.95747    0.30789    0.25714   1.00
H2       1.03610    0.28648    0.26528   1.00
C6       0.99257    0.23709    0.23708   1.00
H2       1.03166    0.19761    0.29591   1.00
C6       0.96245    0.09029    0.29754   1.00
C6       1.04119    0.15093    0.26892   1.00
H2       0.83610    0.16355    0.26962   1.00
C6       0.85037    0.09595    0.25010   1.00
C6       0.81450    0.07268    0.28606   1.00
C6       0.96941    0.35123    0.34831   1.00
C6       0.98101    0.29388    0.37931   1.00
H2       1.06035    0.38061    0.36503   1.00
H2       1.06920    0.23926    0.37100   1.00
C6       1.14131    0.23772    0.35051   1.00
C6       1.16410    0.33262    0.37458   1.00
H2       1.16187    0.35332    0.32676   1.00
C6       1.09576    0.36469    0.30636   1.00
C6       1.15547    0.44077    0.33583   1.00
H2       0.95993    0.33294    0.27152   1.00
H2       0.90461    0.28220    0.25188   1.00
H2       0.98826    0.34833    0.24632   1.00
H2       1.03993    0.27752    0.23049   1.00
H2       0.99421    0.19001    0.23621   1.00
H2       0.95137    0.23137    0.22717   1.00
H2       1.00146    0.08236    0.30474   1.00
H2       0.92968    0.08978    0.30969   1.00
H2       0.93257    0.04685    0.28757   1.00
H2       1.07471    0.19936    0.26143   1.00
H2       1.07456    0.13419    0.27564   1.00
H2       1.00978    0.11327    0.25750   1.00
H2       0.88247    0.07274    0.24894   1.00
H2       0.79747    0.05587    0.24763   1.00
H2       0.86211    0.13136    0.23760   1.00
H2       0.82164    0.02876    0.28416   1.00
H2       0.82388    0.08723    0.30189   1.00
H2       0.76058    0.05500    0.28324   1.00
H2       0.91929    0.30668    0.34588   1.00
H2       0.96177    0.38734    0.35736   1.00
H2       0.98938    0.37524    0.33368   1.00
H2       0.96508    0.32447    0.38812   1.00
H2       0.93525    0.24544    0.37616   1.00
H2       1.01378    0.28429    0.38926   1.00
H2       1.15829    0.21462    0.36200   1.00
H2       1.10488    0.19629    0.34082   1.00
H2       1.18543    0.27169    0.34129   1.00
H2       1.14472    0.36106    0.38290   1.00
H2       1.18181    0.30957    0.38588   1.00
H2       1.20836    0.36857    0.36572   1.00
H2       1.05251    0.37331    0.30600   1.00
H2       1.13630    0.40339    0.29693   1.00
H2       1.07991    0.31570    0.29930   1.00
H2       1.19785    0.47412    0.32589   1.00
H2       1.11943    0.45956    0.33593   1.00
H2       1.17654    0.44668    0.35105   1.00
C4       0.80889    0.64816    0.83198   1.00
C4       0.83729    0.70259    0.84640   1.00
C3       0.75397    0.63523    0.81886   1.00
C3       0.80969    0.74556    0.85044   1.00
C3       0.83582    0.60319    0.83067   1.00
C3       0.89671    0.71541    0.85748   1.00
C2       0.75209    0.53500    0.80392   1.00
C2       0.89680    0.81060    0.87615   1.00
C3       0.72607    0.58000    0.80529   1.00
C3       0.83896    0.79850    0.86477   1.00
C3       0.80780    0.54852    0.81662   1.00
C3       0.92369    0.76712    0.87246   1.00
H1       0.73278    0.66570    0.81873   1.00
H1       0.76726    0.73942    0.84319   1.00
C5       0.89075    0.61328    0.84335   1.00
C5       0.92859    0.67627    0.85370   1.00
H1       0.68605    0.57289    0.79629   1.00
H1       0.81716    0.82833    0.86693   1.00
H1       0.82888    0.51782    0.81546   1.00
H1       0.96358    0.77281    0.88117   1.00
O3       0.90899    0.56373    0.84448   1.00
O3       0.99292    0.69616    0.86116   1.00
Si1      0.87677    0.50582    0.86225   1.00
Si1      1.05937    0.75107    0.84827   1.00
C6       0.90899    0.45407    0.85320   1.00
C6       0.91581    0.54563    0.88530   1.00
C6       0.78674    0.46089    0.86259   1.00
C6       1.04571    0.78480    0.82571   1.00
C6       1.10404    0.81731    0.86573   1.00
C6       1.10896    0.71271    0.84318   1.00
C6       0.89901    0.43705    0.82997   1.00
H2       0.96388    0.48706    0.85526   1.00
C6       0.89071    0.38517    0.86399   1.00
H2       0.96408    0.58835    0.88011   1.00
C6       0.88149    0.57780    0.89841   1.00
C6       0.93541    0.50568    0.90072   1.00
H2       0.77432    0.44795    0.84659   1.00
C6       0.75058    0.39163    0.87443   1.00
C6       0.74756    0.49846    0.86946   1.00
C6       1.00119    0.73371    0.80871   1.00
C6       1.02296    0.83963    0.82705   1.00
H2       1.09702    0.81302    0.81935   1.00
H2       1.07210    0.84049    0.86738   1.00
C6       1.11149    0.79518    0.88765   1.00
C6       1.17633    0.87591    0.85935   1.00
H2       1.13745    0.71976    0.85719   1.00
C6       1.06910    0.63415    0.83958   1.00
C6       1.16347    0.74378    0.82586   1.00
H2       0.92041    0.48331    0.82076   1.00
H2       0.84501    0.40574    0.82613   1.00
H2       0.92485    0.40938    0.82532   1.00
H2       0.93364    0.37597    0.86292   1.00
H2       0.87882    0.38469    0.87998   1.00
H2       0.84723    0.34139    0.85692   1.00
H2       0.91719    0.61272    0.90973   1.00
H2       0.86579    0.60762    0.88929   1.00
H2       0.83710    0.53863    0.90652   1.00
H2       0.96850    0.48923    0.89375   1.00
H2       0.96382    0.53776    0.91361   1.00
H2       0.89002    0.46113    0.90671   1.00
H2       0.76924    0.39808    0.89000   1.00
H2       0.69522    0.36987    0.87502   1.00
H2       0.75826    0.35319    0.86699   1.00
H2       0.74001    0.49612    0.88586   1.00
H2       0.77304    0.55181    0.86524   1.00
H2       0.69699    0.47440    0.86247   1.00
H2       0.94693    0.71308    0.81144   1.00
H2       1.01264    0.75934    0.79399   1.00
H2       1.01059    0.69123    0.80726   1.00
H2       1.02606    0.86228    0.81215   1.00
H2       0.97054    0.81809    0.83220   1.00
H2       1.05565    0.88168    0.83710   1.00
H2       1.12928    0.83820    0.89814   1.00
H2       1.06261    0.75492    0.89348   1.00
H2       1.14777    0.77683    0.88821   1.00
H2       1.17564    0.89607    0.84438   1.00
H2       1.19454    0.91852    0.87002   1.00
H2       1.21355    0.85865    0.85925   1.00
H2       1.03625    0.62007    0.82626   1.00
H2       1.10356    0.61386    0.83772   1.00
H2       1.03712    0.60865    0.85261   1.00
H2       1.19754    0.72258    0.82628   1.00
H2       1.13952    0.73288    0.81090   1.00
H2       1.19552    0.79888    0.82739   1.00
C4       0.35430    0.16900    0.83274   1.00
C4       0.29856    0.14169    0.84672   1.00
C3       0.35880    0.20930    0.81568   1.00
C3       0.23898    0.14667    0.84402   1.00
C3       0.40836    0.15469    0.83566   1.00
C3       0.30201    0.10750    0.86449   1.00
C2       0.46705    0.21952    0.80461   1.00
C2       0.18735    0.08375    0.87546   1.00
C3       0.41340    0.23356    0.80193   1.00
C3       0.18516    0.11908    0.85808   1.00
C3       0.46363    0.18070    0.82183   1.00
C3       0.24599    0.07752    0.87802   1.00
H1       0.32266    0.22241    0.81277   1.00
H1       0.23273    0.17012    0.83170   1.00
C5       0.40701    0.11473    0.85243   1.00
C5       0.36098    0.10283    0.86858   1.00
H1       0.41367    0.26204    0.78978   1.00
H1       0.14360    0.12475    0.85543   1.00
H1       0.50297    0.17161    0.82443   1.00
H1       0.24742    0.04948    0.88997   1.00
O3       0.45283    0.09159    0.85334   1.00
O3       0.37113    0.08234    0.88738   1.00
Si1      0.43154    0.01617    0.84449   1.00
Si1      0.40568    0.13901    0.90538   1.00
C6       0.51261    0.02344    0.84667   1.00
C6       0.37294    -0.04453   0.86166   1.00
C6       0.40408    0.00443    0.81899   1.00
C6       0.42581    0.22366    0.90017   1.00
C6       0.34476    0.10539    0.92486   1.00
C6       0.47895    0.13760    0.91363   1.00
C6       0.57413    0.09120    0.83835   1.00
H2       0.51980    0.02551    0.86309   1.00
C6       0.52535    -0.03493   0.83903   1.00
H2       0.38596    -0.01549   0.87577   1.00
C6       0.29514    -0.07175   0.85827   1.00
C6       0.37841    -0.10932   0.86645   1.00
H2       0.44365    0.05099    0.81180   1.00
C6       0.40269    -0.05623   0.80713   1.00
C6       0.33401    -0.00077   0.81359   1.00
C6       0.47457    0.26141    0.88197   1.00
C6       0.36721    0.24126    0.89903   1.00
H2       0.45429    0.25079    0.91369   1.00
H2       0.30259    0.11089    0.91911   1.00
C6       0.31350    0.02745    0.92931   1.00
C6       0.36486    0.14245    0.94585   1.00
H2       0.45912    0.09405    0.92393   1.00
C6       0.51893    0.12253    0.89712   1.00
C6       0.53369    0.20017    0.92600   1.00
H2       0.57633    0.13599    0.84533   1.00
H2       0.57054    0.09531    0.82193   1.00
H2       0.62273    0.09391    0.84167   1.00
H2       0.56313    -0.03781   0.84866   1.00
H2       0.47954    -0.08483   0.83921   1.00
H2       0.54563    -0.02594   0.82360   1.00
H2       0.26603    -0.09695   0.87194   1.00
H2       0.28463    -0.03085   0.85490   1.00
H2       0.27511    -0.10892   0.84595   1.00
H2       0.42914    -0.09558   0.87196   1.00
H2       0.34278    -0.14007   0.87843   1.00
H2       0.36675    -0.14173   0.85307   1.00
H2       0.37303    -0.10428   0.81528   1.00
H2       0.38058    -0.06247   0.79198   1.00
H2       0.45387    -0.04746   0.80462   1.00
H2       0.29147    -0.05293   0.81478   1.00
H2       0.32177    0.03064    0.82310   1.00
H2       0.33492    0.01577    0.79794   1.00
H2       0.44722    0.24874    0.86760   1.00
H2       0.49856    0.31665    0.88385   1.00
H2       0.51552    0.24964    0.88075   1.00
H2       0.38827    0.29651    0.89860   1.00
H2       0.33596    0.22049    0.88552   1.00
H2       0.33389    0.22291    0.91226   1.00
H2       0.26854    0.00906    0.93904   1.00
H2       0.29676    -0.00262   0.91536   1.00
H2       0.34972    0.01650    0.93693   1.00
H2       0.38543    0.19727    0.94428   1.00
H2       0.32006    0.12331    0.95569   1.00
H2       0.40247    0.13390    0.95366   1.00
H2       0.53939    0.16157    0.88535   1.00
H2       0.56113    0.11858    0.90367   1.00
H2       0.48528    0.07403    0.88987   1.00
H2       0.57088    0.18876    0.93283   1.00
H2       0.56164    0.24499    0.91634   1.00
H2       0.51075    0.21361    0.93840   1.00
C4       0.83066    0.18549    0.83292   1.00
C4       0.85792    0.15690    0.84687   1.00
C3       0.78300    0.14722    0.81749   1.00
C3       0.84507    0.08886    0.84562   1.00
C3       0.85273    0.25649    0.83414   1.00
C3       0.90032    0.19805    0.86308   1.00
C2       0.78055    0.24776    0.80467   1.00
C2       0.91618    0.10335    0.87540   1.00
C3       0.75890    0.17753    0.80367   1.00
C3       0.87286    0.06259    0.85959   1.00
C3       0.82683    0.28583    0.82030   1.00
C3       0.93017    0.17151    0.87648   1.00
H1       0.76422    0.09616    0.81588   1.00
H1       0.81550    0.05652    0.83444   1.00
C5       0.90028    0.29765    0.84923   1.00
C5       0.91326    0.26561    0.86574   1.00
H1       0.72486    0.14739    0.79274   1.00
H1       0.86134    0.01284    0.85804   1.00
H1       0.84167    0.33642    0.82171   1.00
H1       0.96387    0.20295    0.88720   1.00
O3       0.92994    0.36757    0.84826   1.00
O3       0.94246    0.30137    0.88339   1.00
Si1      1.00330    0.41256    0.83690   1.00
Si1      0.89342    0.29068    0.90281   1.00
C6       1.00555    0.49158    0.83768   1.00
C6       1.06626    0.41307    0.85274   1.00
C6       1.00350    0.38647    0.81167   1.00
C6       0.80532    0.23136    0.90060   1.00
C6       0.92863    0.26430    0.92208   1.00
C6       0.90603    0.37155    0.90944   1.00
C6       0.93865    0.49041    0.83085   1.00
H2       1.00999    0.50249    0.85392   1.00
C6       1.06532    0.55681    0.82750   1.00
H2       1.04234    0.40426    0.86765   1.00
C6       1.08481    0.35566    0.84989   1.00
C6       1.13632    0.48066    0.85481   1.00
H2       0.95670    0.38235    0.80557   1.00
C6       1.06259    0.43765    0.79750   1.00
C6       0.99918    0.31604    0.80755   1.00
C6       0.76488    0.24154    0.88303   1.00
C6       0.77994    0.15310    0.90138   1.00
H2       0.78490    0.24033    0.91452   1.00
H2       0.91612    0.21307    0.91746   1.00
C6       1.00820    0.30545    0.92403   1.00
C6       0.89953    0.25765    0.94399   1.00
H2       0.95297    0.39457    0.91834   1.00
C6       0.92044    0.42222    0.89161   1.00
C6       0.85109    0.37474    0.92309   1.00
H2       0.89452    0.45329    0.83953   1.00
H2       0.92815    0.47754    0.81478   1.00
H2       0.94243    0.53997    0.83325   1.00
H2       1.07597    0.60225    0.83617   1.00
H2       1.11244    0.55524    0.82664   1.00
H2       1.05275    0.56478    0.81212   1.00
H2       1.11272    0.35295    0.86307   1.00
H2       1.03968    0.30549    0.84839   1.00
H2       1.11710    0.36528    0.83659   1.00
H2       1.12958    0.52288    0.85977   1.00
H2       1.16872    0.47573    0.86621   1.00
H2       1.16419    0.49427    0.84046   1.00
H2       1.11239    0.45386    0.80429   1.00
H2       1.06130    0.41539    0.78266   1.00
H2       1.05827    0.48239    0.79430   1.00
H2       1.04938    0.32032    0.80752   1.00
H2       0.96832    0.27702    0.81850   1.00
H2       0.97646    0.29657    0.79265   1.00
H2       0.77000    0.22001    0.86881   1.00
H2       0.71046    0.21591    0.88660   1.00
H2       0.78135    0.29508    0.88050   1.00
H2       0.72437    0.12365    0.90272   1.00
H2       0.79339    0.13529    0.88777   1.00
H2       0.80007    0.13947    0.91448   1.00
H2       1.02582    0.27851    0.93389   1.00
H2       1.03284    0.31138    0.90933   1.00
H2       1.02640    0.35612    0.93042   1.00
H2       0.84395    0.22772    0.94419   1.00
H2       0.91800    0.23161    0.95392   1.00
H2       0.91544    0.30760    0.95063   1.00
H2       0.87774    0.40357    0.88106   1.00
H2       0.93161    0.47229    0.89709   1.00
H2       0.96482    0.42970    0.88317   1.00
H2       0.86960    0.42659    0.92866   1.00
H2       0.80394    0.35925    0.91471   1.00
H2       0.83883    0.34214    0.93641   1.00
C4       -0.02056   0.47256    0.33395   1.00
C4       0.03395    0.50180    0.31956   1.00
C3       -0.06256   0.40127    0.33700   1.00
C3       0.04789    0.46274    0.30553   1.00
C3       -0.03500   0.51655    0.34582   1.00
C3       0.07742    0.57408    0.31904   1.00
C2       -0.13192   0.41734    0.36264   1.00
C2       0.14420    0.56487    0.29061   1.00
C3       -0.11695   0.37436    0.35086   1.00
C3       0.10188    0.49332    0.29158   1.00
C3       -0.08930   0.48844    0.36000   1.00
C3       0.12971    0.60405    0.30429   1.00
H1       -0.05472   0.36680    0.32930   1.00
H1       0.01899    0.41096    0.30494   1.00
C5       0.00507    0.58834    0.34352   1.00
C5       0.06819    0.61614    0.33309   1.00
H1       -0.14590   0.32235    0.35232   1.00
H1       0.10992    0.46248    0.28191   1.00
H1       -0.09786   0.52066    0.36881   1.00
H1       0.15757    0.65603    0.30326   1.00
O3       -0.01580   0.62994    0.35240   1.00
O3       0.11718    0.68394    0.33555   1.00
Si1      -0.06156   0.65400    0.33944   1.00
Si1      0.18091    0.70342    0.35088   1.00
C6       -0.08056   0.69282    0.35968   1.00
C6       -0.00714   0.71503    0.32160   1.00
C6       -0.13644   0.58519    0.32919   1.00
C6       0.18574    0.63628    0.36298   1.00
C6       0.25249    0.74884    0.33523   1.00
C6       0.18091    0.76039    0.36907   1.00
C6       -0.10568   0.65027    0.37977   1.00
H2       -0.03052   0.73624    0.36327   1.00
C6       -0.12868   0.72341    0.35653   1.00
H2       0.04259    0.73515    0.32884   1.00
C6       0.00020    0.68970    0.30017   1.00
C6       -0.01559   0.77844    0.31741   1.00
H2       -0.15739   0.55094    0.34220   1.00
C6       -0.19370   0.60009    0.32203   1.00
C6       -0.13077   0.54193    0.31144   1.00
C6       0.12386    0.58520    0.37624   1.00
C6       0.20851    0.59217    0.35051   1.00
H2       0.22757    0.66371    0.37367   1.00
H2       0.25089    0.71000    0.32509   1.00
C6       0.25139    0.80370    0.32102   1.00
C6       0.32418    0.78373    0.34561   1.00
H2       0.20580    0.80967    0.36137   1.00
C6       0.10974    0.74904    0.37552   1.00
C6       0.22180    0.77085    0.38919   1.00
H2       -0.06939   0.63536    0.38516   1.00
H2       -0.15492   0.60392    0.37761   1.00
H2       -0.11127   0.67987    0.39195   1.00
H2       -0.11240   0.76802    0.36627   1.00
H2       -0.12879   0.73947    0.34100   1.00
H2       -0.18148   0.68733    0.36062   1.00
H2       0.04513    0.72929    0.29230   1.00
H2       0.00691    0.64543    0.30111   1.00
H2       -0.04413   0.67689    0.29069   1.00
H2       -0.01133   0.80630    0.33134   1.00
H2       0.02439    0.81480    0.30728   1.00
H2       -0.06464   0.76335    0.31025   1.00
H2       -0.17369   0.64261    0.31134   1.00
H2       -0.23594   0.55587    0.31462   1.00
H2       -0.21660   0.61160    0.33479   1.00
H2       -0.12960   0.56379    0.29658   1.00
H2       -0.08593   0.53656    0.31240   1.00
H2       -0.17497   0.49036    0.31158   1.00
H2       0.08376    0.54527    0.36707   1.00
H2       0.13990    0.55993    0.38727   1.00
H2       0.10175    0.61052    0.38479   1.00
H2       0.21826    0.55963    0.36060   1.00
H2       0.16978    0.55864    0.33975   1.00
H2       0.25580    0.62349    0.34222   1.00
H2       0.29167    0.82063    0.30959   1.00
H2       0.20312    0.78299    0.31281   1.00
H2       0.25915    0.84852    0.32943   1.00
H2       0.33037    0.74840    0.35543   1.00
H2       0.36450    0.80157    0.33415   1.00
H2       0.33285    0.82788    0.35459   1.00
H2       0.07848    0.69971    0.38281   1.00
H2       0.11437    0.78876    0.38590   1.00
H2       0.08238    0.75105    0.36226   1.00
H2       0.22657    0.81449    0.39771   1.00
H2       0.19650    0.72610    0.39901   1.00
H2       0.27346    0.78114    0.38623   1.00
C4       0.49328    1.02110    0.33376   1.00
C4       0.46813    0.96652    0.31939   1.00
C3       0.47022    1.06892    0.33484   1.00
C3       0.42210    0.95804    0.30353   1.00
C3       0.54516    1.02944    0.34770   1.00
C3       0.48968    0.91724    0.32083   1.00
C2       0.54913    1.13206    0.36259   1.00
C2       0.42082    0.85566    0.29066   1.00
C3       0.49761    1.12311    0.34878   1.00
C3       0.39858    0.90379    0.28967   1.00
C3       0.57122    1.08369    0.36189   1.00
C3       0.46766    0.86464    0.30619   1.00
H1       0.43268    1.06564    0.32559   1.00
H1       0.40464    0.99125    0.30150   1.00
C5       0.57045    0.98338    0.34743   1.00
C5       0.53353    0.92095    0.33674   1.00
H1       0.47928    1.15640    0.34876   1.00
H1       0.36487    0.89988    0.27862   1.00
H1       0.60705    1.08792    0.37216   1.00
H1       0.48695    0.83236    0.30666   1.00
O3       0.62788    0.99798    0.35845   1.00
O3       0.54411    0.86707    0.34081   1.00
Si1      0.70276    1.03777    0.34764   1.00
Si1      0.48993    0.80529    0.35533   1.00
C6       0.75172    1.05106    0.36978   1.00
C6       0.70837    0.97944    0.33117   1.00
C6       0.72112    1.11591    0.33640   1.00
C6       0.41841    0.80893    0.36447   1.00
C6       0.46229    0.73281    0.33999   1.00
C6       0.53649    0.79864    0.37574   1.00
C6       0.73170    1.07982    0.38857   1.00
H2       0.73819    0.99912    0.37396   1.00
C6       0.83173    1.09236    0.36905   1.00
H2       0.67228    0.93060    0.33802   1.00
C6       0.68456    0.97542    0.30868   1.00
C6       0.77751    0.97971    0.32981   1.00
H2       0.70687    1.13971    0.34840   1.00
C6       0.79757    1.16759    0.33125   1.00
C6       0.68118    1.11562    0.31686   1.00
C6       0.43144    0.87300    0.37698   1.00
C6       0.35788    0.79280    0.34974   1.00
H2       0.39621    0.76664    0.37523   1.00
H2       0.43144    0.73886    0.32836   1.00
C6       0.51924    0.72715    0.32816   1.00
C6       0.41575    0.66171    0.35004   1.00
H2       0.55871    0.76941    0.36954   1.00
C6       0.59849    0.86659    0.38335   1.00
C6       0.49628    0.75935    0.39518   1.00
H2       0.67788    1.04772    0.39245   1.00
H2       0.74118    1.13137    0.38567   1.00
H2       0.76080    1.08160    0.40201   1.00
H2       0.85264    1.07189    0.38017   1.00
H2       0.85210    1.09040    0.35430   1.00
H2       0.85232    1.14607    0.37287   1.00
H2       0.67682    0.92861    0.30144   1.00
H2       0.63613    0.97445    0.30763   1.00
H2       0.72253    1.01830    0.29979   1.00
H2       0.79405    0.97252    0.34470   1.00
H2       0.77273    0.93790    0.32032   1.00
H2       0.81750    1.02730    0.32324   1.00
H2       0.81968    1.14370    0.32192   1.00
H2       0.80349    1.21229    0.32307   1.00
H2       0.82789    1.18773    0.34493   1.00
H2       0.70536    1.11178    0.30299   1.00
H2       0.62877    1.07437    0.31654   1.00
H2       0.67973    1.16312    0.31592   1.00
H2       0.43970    0.91518    0.36718   1.00
H2       0.38734    0.86113    0.38651   1.00
H2       0.47520    0.89072    0.38704   1.00
H2       0.31397    0.78767    0.35819   1.00
H2       0.37118    0.83292    0.33858   1.00
H2       0.34013    0.74478    0.34168   1.00
H2       0.49658    0.68737    0.31656   1.00
H2       0.55357    0.77467    0.32030   1.00
H2       0.54976    0.71461    0.33817   1.00
H2       0.37309    0.66024    0.35818   1.00
H2       0.39391    0.62179    0.33845   1.00
H2       0.44450    0.64841    0.36057   1.00
H2       0.58306    0.90178    0.38929   1.00
H2       0.62688    0.85760    0.39518   1.00
H2       0.63368    0.89181    0.37092   1.00
H2       0.52880    0.74974    0.40532   1.00
H2       0.47795    0.78843    0.40369   1.00
H2       0.45259    0.70980    0.39145   1.00
C4       0.52781    0.50672    0.33377   1.00
C4       0.49839    0.53188    0.31940   1.00
C3       0.59874    0.53003    0.33492   1.00
C3       0.53602    0.57817    0.30360   1.00
C3       0.48424    0.45460    0.34763   1.00
C3       0.42748    0.51005    0.32077   1.00
C2       0.58293    0.45087    0.36259   1.00
C2       0.43486    0.57918    0.29066   1.00
C3       0.62554    0.50264    0.34885   1.00
C3       0.50530    0.60169    0.28974   1.00
C3       0.51243    0.42853    0.36182   1.00
C3       0.39693    0.53208    0.30613   1.00
H1       0.63303    0.56775    0.32572   1.00
H1       0.58675    0.59584    0.30162   1.00
C5       0.41285    0.42906    0.34729   1.00
C5       0.38726    0.46592    0.33661   1.00
H1       0.67720    0.52115    0.34888   1.00
H1       0.53515    0.63560    0.27873   1.00
H1       0.48078    0.39251    0.37205   1.00
H1       0.34532    0.51260    0.30654   1.00
O3       0.37004    0.37143    0.35824   1.00
O3       0.32264    0.45503    0.34063   1.00
Si1      0.33533    0.29669    0.34735   1.00
Si1      0.31462    0.50888    0.35519   1.00
C6       0.29952    0.24740    0.36943   1.00
C6       0.27148    0.29104    0.33083   1.00
C6       0.39544    0.27877    0.33613   1.00
C6       0.38952    0.58045    0.36444   1.00
C6       0.26976    0.53647    0.33983   1.00
C6       0.26125    0.46193    0.37553   1.00
C6       0.34808    0.26735    0.38826   1.00
H2       0.26092    0.26068    0.37358   1.00
C6       0.26107    0.16741    0.36860   1.00
H2       0.25846    0.32690    0.33769   1.00
C6       0.29148    0.31517    0.30837   1.00
C6       0.20278    0.22177    0.32937   1.00
H2       0.43337    0.29300    0.34817   1.00
C6       0.37102    0.20245    0.33091   1.00
C6       0.43526    0.31905    0.31666   1.00
C6       0.44057    0.56751    0.37698   1.00
C6       0.43394    0.64123    0.34978   1.00
H2       0.36915    0.60238    0.37520   1.00
H2       0.30675    0.56756    0.32826   1.00
C6       0.20741    0.47953    0.32792   1.00
C6       0.24483    0.58267    0.34990   1.00
H2       0.20986    0.43962    0.36927   1.00
C6       0.26738    0.39999    0.38309   1.00
C6       0.26175    0.50180    0.39500   1.00
H2       0.36957    0.32109    0.39220   1.00
H2       0.39032    0.25811    0.38539   1.00
H2       0.32066    0.23802    0.40167   1.00
H2       0.21956    0.14622    0.37968   1.00
H2       0.23896    0.14717    0.35382   1.00
H2       0.29431    0.14696    0.37243   1.00
H2       0.25239    0.32282    0.30111   1.00
H2       0.33885    0.36371    0.30739   1.00
H2       0.29668    0.27741    0.29945   1.00
H2       0.17888    0.20497    0.34422   1.00
H2       0.16576    0.22650    0.31986   1.00
H2       0.21065    0.18198    0.32277   1.00
H2       0.32513    0.18031    0.32153   1.00
H2       0.41002    0.19682    0.32275   1.00
H2       0.36078    0.17198    0.34456   1.00
H2       0.40745    0.29498    0.30274   1.00
H2       0.44621    0.37140    0.31638   1.00
H2       0.48431    0.32072    0.31575   1.00
H2       0.47472    0.55954    0.36719   1.00
H2       0.47256    0.61153    0.38656   1.00
H2       0.41454    0.52361    0.38698   1.00
H2       0.47251    0.68510    0.35830   1.00
H2       0.46101    0.62822    0.33864   1.00
H2       0.40363    0.65892    0.34172   1.00
H2       0.19030    0.50221    0.31633   1.00
H2       0.22087    0.44542    0.32004   1.00
H2       0.16426    0.44875    0.33788   1.00
H2       0.28581    0.62531    0.35811   1.00
H2       0.22676    0.60454    0.33833   1.00
H2       0.20268    0.55367    0.36038   1.00
H2       0.31797    0.41553    0.38908   1.00
H2       0.22990    0.37135    0.39487   1.00
H2       0.25770    0.36500    0.37062   1.00
H2       0.21955    0.46904    0.40508   1.00
H2       0.30909    0.52019    0.40355   1.00
H2       0.25574    0.54543    0.39130   1.00
C4       0.18740    0.35142    0.16821   1.00
C4       0.15808    0.29689    0.15383   1.00
C3       0.15277    0.35434    0.18580   1.00
C3       0.08924    0.24313    0.15461   1.00
C3       0.25471    0.40694    0.16481   1.00
C3       0.19940    0.29534    0.13772   1.00
C2       0.24895    0.46512    0.19603   1.00
C2       0.10216    0.18928    0.12390   1.00
C3       0.18250    0.40977    0.19927   1.00
C3       0.06219    0.19045    0.14017   1.00
C3       0.28428    0.46178    0.17878   1.00
C3       0.17036    0.24340    0.12284   1.00
H1       0.10502    0.31616    0.18938   1.00
H1       0.05661    0.24088    0.16561   1.00
C5       0.29214    0.40718    0.14751   1.00
C5       0.26925    0.34586    0.13642   1.00
H1       0.15482    0.40931    0.21166   1.00
H1       0.01223    0.15259    0.14160   1.00
H1       0.33330    0.50032    0.17644   1.00
H1       0.19940    0.24542    0.11069   1.00
O3       0.35195    0.46546    0.14248   1.00
O3       0.31308    0.33807    0.12355   1.00
Si1      0.35062    0.51962    0.12639   1.00
Si1      0.34835    0.29454    0.13136   1.00
C6       0.43629    0.58455    0.12955   1.00
C6       0.33683    0.48263    0.10208   1.00
C6       0.29377    0.54812    0.13339   1.00
C6       0.32635    0.25682    0.15570   1.00
C6       0.32334    0.23050    0.11291   1.00
C6       0.43731    0.34839    0.12953   1.00
C6       0.46150    0.60328    0.15202   1.00
H2       0.46415    0.56081    0.12335   1.00
C6       0.46523    0.65464    0.11823   1.00
H2       0.35623    0.44748    0.10389   1.00
C6       0.26172    0.43822    0.09443   1.00
C6       0.37686    0.52925    0.08368   1.00
H2       0.30634    0.56107    0.14938   1.00
C6       0.30330    0.61440    0.12288   1.00
C6       0.21474    0.49732    0.13242   1.00
C6       0.33832    0.30427    0.17433   1.00
C6       0.25510    0.19147    0.15906   1.00
H2       0.36220    0.23834    0.15770   1.00
H2       0.26883    0.19764    0.11559   1.00
C6       0.32965    0.25416    0.09031   1.00
C6       0.35563    0.18359    0.11407   1.00
H2       0.44837    0.34577    0.11354   1.00
C6       0.46499    0.42559    0.13374   1.00
C6       0.48420    0.32867    0.14178   1.00
H2       0.45344    0.55851    0.16056   1.00
H2       0.43479    0.62556    0.15989   1.00
H2       0.51616    0.63995    0.15264   1.00
H2       0.51896    0.67465    0.11447   1.00
H2       0.43848    0.65080    0.10417   1.00
H2       0.46302    0.69331    0.12758   1.00
H2       0.25933    0.40702    0.08145   1.00
H2       0.22853    0.40293    0.10600   1.00
H2       0.24072    0.47008    0.08959   1.00
H2       0.43181    0.55554    0.08625   1.00
H2       0.36777    0.49933    0.06982   1.00
H2       0.36129    0.56698    0.08074   1.00
H2       0.30312    0.61001    0.10638   1.00
H2       0.26306    0.62547    0.12706   1.00
H2       0.35056    0.65898    0.12758   1.00
H2       0.19373    0.49647    0.11745   1.00
H2       0.20040    0.44522    0.13609   1.00
H2       0.18842    0.51278    0.14326   1.00
H2       0.29630    0.31412    0.17640   1.00
H2       0.34227    0.28036    0.18828   1.00
H2       0.38528    0.35305    0.17296   1.00
H2       0.25296    0.16893    0.17391   1.00
H2       0.21355    0.20250    0.15860   1.00
H2       0.24472    0.15191    0.14790   1.00
H2       0.30243    0.21009    0.08029   1.00
H2       0.30696    0.28642    0.08806   1.00
H2       0.38263    0.28250    0.08529   1.00
H2       0.35170    0.16292    0.12928   1.00
H2       0.32904    0.14005    0.10382   1.00
H2       0.40928    0.21102    0.10963   1.00
H2       0.45465    0.43484    0.14922   1.00
H2       0.51991    0.45588    0.13113   1.00
H2       0.44097    0.44483    0.12350   1.00
H2       0.53738    0.35962    0.13700   1.00
H2       0.48201    0.33664    0.15804   1.00
H2       0.46999    0.27556    0.13936   1.00
C4       0.64174    0.83366    0.16583   1.00
C4       0.69757    0.86091    0.15189   1.00
C3       0.57932    0.83228    0.16208   1.00
C3       0.69895    0.89504    0.13367   1.00
C3       0.64851    0.80709    0.18478   1.00
C3       0.75551    0.85385    0.15619   1.00
C2       0.53253    0.78075    0.19524   1.00
C2       0.81307    0.91598    0.12469   1.00
C3       0.52635    0.80693    0.17642   1.00
C3       0.75481    0.92126    0.12034   1.00
C3       0.59399    0.78057    0.19888   1.00
C3       0.81248    0.88319    0.14300   1.00
H1       0.57042    0.84944    0.14879   1.00
H1       0.65960    0.90223    0.12960   1.00
C5       0.70959    0.80693    0.18948   1.00
C5       0.75665    0.81812    0.17370   1.00
H1       0.48256    0.80769    0.17292   1.00
H1       0.75272    0.94493    0.10730   1.00
H1       0.59886    0.75996    0.21217   1.00
H1       0.85528    0.88150    0.14695   1.00
O3       0.72038    0.79202    0.20892   1.00
O3       0.80544    0.79901    0.17609   1.00
Si1      0.76215    0.85368    0.22514   1.00
Si1      0.79237    0.72790    0.16581   1.00
C6       0.74721    0.80196    0.24673   1.00
C6       0.84882    0.89551    0.21805   1.00
C6       0.72709    0.90743    0.22816   1.00
C6       0.71745    0.68008    0.15133   1.00
C6       0.86409    0.75427    0.15021   1.00
C6       0.79658    0.67725    0.18541   1.00
C6       0.67166    0.74364    0.25001   1.00
H2       0.77557    0.77601    0.24309   1.00
C6       0.77308    0.83439    0.26825   1.00
H2       0.85218    0.85547    0.20983   1.00
C6       0.87543    0.95713    0.20305   1.00
C6       0.90414    0.91944    0.23511   1.00
H2       0.67285    0.87072    0.23008   1.00
C6       0.74905    0.95426    0.24741   1.00
C6       0.73255    0.95604    0.21034   1.00
C6       0.64723    0.65675    0.16181   1.00
C6       0.71244    0.70522    0.12960   1.00
H2       0.71844    0.63313    0.14840   1.00
H2       0.85636    0.78230    0.13803   1.00
C6       0.93458    0.80585    0.15987   1.00
C6       0.87343    0.69742    0.13980   1.00
H2       0.85115    0.69745    0.18760   1.00
C6       0.76949    0.68366    0.20656   1.00
C6       0.76513    0.59902    0.18141   1.00
H2       0.65190    0.71064    0.23671   1.00
H2       0.63819    0.76443    0.25311   1.00
H2       0.66772    0.71092    0.26274   1.00
H2       0.78700    0.80252    0.27720   1.00
H2       0.81756    0.88519    0.26758   1.00
H2       0.73389    0.83811    0.27688   1.00
H2       0.92461    0.96884    0.19659   1.00
H2       0.84105    0.94639    0.19028   1.00
H2       0.88259    1.00295    0.21073   1.00
H2       0.89594    0.87713    0.24490   1.00
H2       0.95526    0.93979    0.22871   1.00
H2       0.90439    0.95953    0.24439   1.00
H2       0.80450    0.98498    0.24854   1.00
H2       0.72867    0.98906    0.24729   1.00
H2       0.72921    0.92444    0.26119   1.00
H2       0.78002    1.00489    0.21092   1.00
H2       0.72977    0.93472    0.19543   1.00
H2       0.69074    0.96699    0.21128   1.00
H2       0.63388    0.69676    0.16156   1.00
H2       0.60648    0.61276    0.15390   1.00
H2       0.64652    0.64147    0.17750   1.00
H2       0.66780    0.66581    0.12156   1.00
H2       0.70728    0.75045    0.13003   1.00
H2       0.75650    0.71635    0.12023   1.00
H2       0.97402    0.82794    0.14816   1.00
H2       0.93291    0.84828    0.16720   1.00
H2       0.95083    0.78154    0.17111   1.00
H2       0.82704    0.65995    0.13209   1.00
H2       0.91360    0.71968    0.12830   1.00
H2       0.88805    0.67087    0.15077   1.00
H2       0.71530    0.66728    0.20620   1.00
H2       0.77760    0.65380    0.21809   1.00
H2       0.79680    0.73641    0.21153   1.00
H2       0.78006    0.57542    0.19332   1.00
H2       0.70945    0.57284    0.18111   1.00
H2       0.78270    0.58919    0.16709   1.00
C4       0.16528    0.80715    0.16586   1.00
C4       0.13816    0.83597    0.15196   1.00
C3       0.15501    0.74019    0.16398   1.00
C3       0.09303    0.79870    0.13588   1.00
C3       0.20406    0.84667    0.18283   1.00
C3       0.15694    0.90596    0.15404   1.00
C2       0.21898    0.75137    0.19519   1.00
C2       0.08429    0.89752    0.12474   1.00
C3       0.18077    0.71289    0.17829   1.00
C3       0.06732    0.82876    0.12253   1.00
C3       0.23069    0.81865    0.19689   1.00
C3       0.12817    0.93447    0.14096   1.00
H1       0.12872    0.70937    0.15213   1.00
H1       0.07717    0.74852    0.13348   1.00
C5       0.21624    0.91400    0.18560   1.00
C5       0.20379    0.94701    0.16924   1.00
H1       0.17129    0.66398    0.17622   1.00
H1       0.03534    0.79949    0.11108   1.00
H1       0.26000    0.84826    0.20868   1.00
H1       0.13870    0.98335    0.14345   1.00
O3       0.24357    0.94760    0.20360   1.00
O3       0.23291    1.01716    0.16902   1.00
Si1      0.19315    0.94428    0.22182   1.00
Si1      0.30085    1.06220    0.15525   1.00
C6       0.25647    0.98435    0.24063   1.00
C6       0.15895    0.99601    0.21457   1.00
C6       0.13231    0.86023    0.22892   1.00
C6       0.33230    1.01861    0.14053   1.00
C6       0.27633    1.10799    0.13918   1.00
C6       0.36504    1.12081    0.17158   1.00
C6       0.30794    0.95749    0.24286   1.00
H2       0.28654    1.03613    0.23471   1.00
C6       0.23716    0.99262    0.26291   1.00
H2       0.19767    1.03169    0.20409   1.00
C6       0.09034    0.96249    0.20246   1.00
C6       0.15100    1.04125    0.23107   1.00
H2       0.16358    0.83613    0.23038   1.00
C6       0.09600    0.85042    0.24990   1.00
C6       0.07271    0.81454    0.21394   1.00
C6       0.35124    0.96938    0.15168   1.00
C6       0.29387    0.98098    0.12068   1.00
H2       0.38062    1.06032    0.13495   1.00
H2       0.23928    1.06919    0.12899   1.00
C6       0.23776    1.14132    0.14948   1.00
C6       0.33265    1.16408    0.12540   1.00
H2       0.35337    1.16187    0.17322   1.00
C6       0.36473    1.09576    0.19362   1.00
C6       0.44081    1.15546    0.16415   1.00
H2       0.33298    0.95995    0.22847   1.00
H2       0.28225    0.90463    0.24811   1.00
H2       0.34839    0.98829    0.25367   1.00
H2       0.27760    1.03998    0.26950   1.00
H2       0.19008    0.99427    0.26378   1.00
H2       0.23144    0.95143    0.27282   1.00
H2       0.08241    1.00150    0.19526   1.00
H2       0.08981    0.92972    0.19031   1.00
H2       0.04690    0.93262    0.21243   1.00
H2       0.19944    1.07476    0.23857   1.00
H2       0.13427    1.07462    0.22435   1.00
H2       0.11335    1.00984    0.24249   1.00
H2       0.07280    0.88253    0.25107   1.00
H2       0.05592    0.79753    0.25238   1.00
H2       0.13142    0.86216    0.26240   1.00
H2       0.02880    0.82169    0.21584   1.00
H2       0.08725    0.82391    0.19811   1.00
H2       0.05502    0.76062    0.21676   1.00
H2       0.30668    0.91927    0.15411   1.00
H2       0.38734    0.96174    0.14263   1.00
H2       0.37525    0.98936    0.16631   1.00
H2       0.32446    0.96504    0.11187   1.00
H2       0.24544    0.93523    0.12383   1.00
H2       0.28429    1.01375    0.11073   1.00
H2       0.21466    1.15830    0.13799   1.00
H2       0.19633    1.10490    0.15917   1.00
H2       0.27174    1.18544    0.15870   1.00
H2       0.36107    1.14469    0.11708   1.00
H2       0.30959    1.18179    0.11410   1.00
H2       0.36860    1.20834    0.13427   1.00
H2       0.37334    1.05251    0.19399   1.00
H2       0.40345    1.13631    0.20305   1.00
H2       0.31574    1.07992    0.20069   1.00
H2       0.47417    1.19784    0.17409   1.00
H2       0.45958    1.11941    0.16406   1.00
H2       0.44671    1.17651    0.14893   1.00
C4       1.01844    0.51973    0.66524   1.00
C4       0.96401    0.49073    0.67966   1.00
C3       1.03019    0.48077    0.65060   1.00
C3       0.91979    0.41946    0.68209   1.00
C3       1.06465    0.59153    0.66554   1.00
C3       0.95248    0.53490    0.69242   1.00
C2       1.13167    0.58176    0.63726   1.00
C2       0.85605    0.43603    0.70949   1.00
C3       1.08545    0.51082    0.63707   1.00
C3       0.86689    0.39284    0.69646   1.00
C3       1.11934    0.62104    0.65151   1.00
C3       0.90076    0.50699    0.70739   1.00
H1       0.99881    0.42944    0.64928   1.00
H1       0.92497    0.38477    0.67358   1.00
C5       1.05577    0.63342    0.67979   1.00
C5       0.99293    0.60664    0.69032   1.00
H1       1.09167    0.48000    0.62691   1.00
H1       0.83613    0.34088    0.69742   1.00
H1       1.15095    0.67285    0.65153   1.00
H1       0.89598    0.53917    0.71726   1.00
O3       1.10640    0.70029    0.68231   1.00
O3       0.97438    0.64980    0.69954   1.00
Si1      1.16415    0.71991    0.69987   1.00
Si1      0.92052    0.66629    0.68798   1.00
C6       1.21738    0.80587    0.69274   1.00
C6       1.12475    0.71362    0.72346   1.00
C6       1.20736    0.67333    0.69799   1.00
C6       0.88611    0.62558    0.66455   1.00
C6       0.85452    0.64120    0.70577   1.00
C6       0.96061    0.75545    0.68515   1.00
C6       1.23444    0.81904    0.66956   1.00
H2       1.18535    0.82811    0.69606   1.00
C6       1.28663    0.85229    0.70399   1.00
H2       1.08273    0.72164    0.71917   1.00
C6       1.09127    0.64369    0.73487   1.00
C6       1.16563    0.76843    0.74008   1.00
H2       1.22021    0.67801    0.68187   1.00
C6       1.27653    0.70180    0.70970   1.00
C6       1.16831    0.59492    0.70295   1.00
C6       0.93676    0.63576    0.64699   1.00
C6       0.83002    0.54827    0.66425   1.00
H2       0.85884    0.65125    0.65944   1.00
H2       0.83024    0.58572    0.70600   1.00
C6       0.87703    0.66440    0.72819   1.00
C6       0.79704    0.65811    0.70084   1.00
H2       0.95415    0.77333    0.69992   1.00
C6       1.03916    0.79366    0.68152   1.00
C6       0.93060    0.78462    0.66920   1.00
H2       1.18818    0.79761    0.66036   1.00
H2       1.26479    0.79652    0.66448   1.00
H2       1.26312    0.87362    0.66623   1.00
H2       1.29703    0.90492    0.70447   1.00
H2       1.28676    0.83633    0.71952   1.00
H2       1.32988    0.85356    0.69624   1.00
H2       1.05677    0.64213    0.74674   1.00
H2       1.06071    0.60104    0.72480   1.00
H2       1.12978    0.63528    0.74212   1.00
H2       1.18314    0.81992    0.73448   1.00
H2       1.13382    0.76187    0.75333   1.00
H2       1.20957    0.76490    0.74528   1.00
H2       1.27041    0.70991    0.72572   1.00
H2       1.29716    0.66727    0.70883   1.00
H2       1.31566    0.74947    0.70316   1.00
H2       1.17043    0.58505    0.71906   1.00
H2       1.11496    0.56923    0.69872   1.00
H2       1.19142    0.56960    0.69472   1.00
H2       0.95627    0.60063    0.64827   1.00
H2       0.91116    0.62615    0.63229   1.00
H2       0.98001    0.68748    0.64653   1.00
H2       0.80722    0.53324    0.64916   1.00
H2       0.85048    0.51522    0.66802   1.00
H2       0.78823    0.53700    0.67465   1.00
H2       0.83390    0.63704    0.73852   1.00
H2       0.91654    0.65317    0.73304   1.00
H2       0.89653    0.71888    0.73022   1.00
H2       0.77667    0.64174    0.68559   1.00
H2       0.75433    0.63153    0.71137   1.00
H2       0.81545    0.71265    0.70223   1.00
H2       1.05262    0.77813    0.66742   1.00
H2       1.06057    0.84889    0.68113   1.00
H2       1.06412    0.78292    0.69386   1.00
H2       0.95291    0.83971    0.67106   1.00
H2       0.94108    0.77538    0.65370   1.00
H2       0.87562    0.76223    0.67089   1.00
C4       0.50206    -0.01820   0.66517   1.00
C4       0.52736    0.03628    0.67957   1.00
C3       0.45864    -0.02466   0.64875   1.00
C3       0.50686    0.08616    0.68009   1.00
C3       0.52002    -0.06999   0.66733   1.00
C3       0.57603    0.04188    0.69432   1.00
C2       0.45033    -0.13172   0.63729   1.00
C2       0.57972    0.14400    0.70946   1.00
C3       0.43315    -0.08003   0.63525   1.00
C3       0.53278    0.13892    0.69450   1.00
C3       0.49480    -0.12476   0.65334   1.00
C3       0.59929    0.09370    0.70925   1.00
H1       0.44445    0.01080    0.64607   1.00
H1       0.47219    0.08539    0.67009   1.00
C5       0.56327    -0.06658   0.68342   1.00
C5       0.60081    -0.00453   0.69425   1.00
H1       0.40155    -0.08225   0.62375   1.00
H1       0.51656    0.17390    0.69403   1.00
H1       0.50963    -0.16052   0.65475   1.00
H1       0.63075    0.09440    0.72049   1.00
O3       0.57125    -0.12188   0.68748   1.00
O3       0.65714    0.00772    0.70560   1.00
Si1      0.52271    -0.17806   0.70436   1.00
Si1      0.73300    0.05600    0.69608   1.00
C6       0.54899    -0.23816   0.69957   1.00
C6       0.55011    -0.14026   0.72844   1.00
C6       0.43476    -0.21290   0.69956   1.00
C6       0.73950    0.09283    0.67195   1.00
C6       0.77291    0.12085    0.71426   1.00
C6       0.77457    0.00782    0.69600   1.00
C6       0.55130    -0.25589   0.67670   1.00
H2       0.60212    -0.21086   0.70453   1.00
C6       0.51543    -0.30835   0.71102   1.00
H2       0.60317    -0.10199   0.72551   1.00
C6       0.51648    -0.10050   0.73768   1.00
C6       0.55226    -0.18489   0.74624   1.00
H2       0.43119    -0.22560   0.68344   1.00
C6       0.38447    -0.28085   0.71074   1.00
C6       0.40134    -0.16697   0.70217   1.00
C6       0.70179    0.04410    0.65375   1.00
C6       0.72681    0.15451    0.66979   1.00
H2       0.79371    0.11520    0.66858   1.00
H2       0.74688    0.15019    0.71277   1.00
C6       0.76303    0.09723    0.73694   1.00
C6       0.85068    0.17252    0.71141   1.00
H2       0.79284    0.01186    0.71154   1.00
C6       0.72876    -0.07020   0.69212   1.00
C6       0.83867    0.03225    0.68207   1.00
H2       0.58320    -0.21016   0.66777   1.00
H2       0.50029    -0.28161   0.67002   1.00
H2       0.57296    -0.28926   0.67496   1.00
H2       0.55314    -0.32436   0.71342   1.00
H2       0.49511    -0.30643   0.72578   1.00
H2       0.47385    -0.34901   0.70236   1.00
H2       0.54715    -0.06796   0.75022   1.00
H2       0.51250    -0.06692   0.72665   1.00
H2       0.46571    -0.13543   0.74363   1.00
H2       0.58357    -0.20747   0.74239   1.00
H2       0.57501    -0.15426   0.75988   1.00
H2       0.50104    -0.22549   0.75022   1.00
H2       0.39289    -0.27596   0.72711   1.00
H2       0.33108    -0.29602   0.70796   1.00
H2       0.38984    -0.32319   0.70528   1.00
H2       0.38439    -0.16763   0.71771   1.00
H2       0.43502    -0.11406   0.69817   1.00
H2       0.35643    -0.18561   0.69242   1.00
H2       0.64828    0.03008    0.65311   1.00
H2       0.72486    0.06906    0.63937   1.00
H2       0.70449    -0.00252   0.65440   1.00
H2       0.74203    0.17748    0.65473   1.00
H2       0.67336    0.13936    0.67169   1.00
H2       0.75665    0.19501    0.68064   1.00
H2       0.77940    0.14092    0.74709   1.00
H2       0.70944    0.06169    0.74036   1.00
H2       0.79239    0.07251    0.74074   1.00
H2       0.86217    0.19338    0.69607   1.00
H2       0.86726    0.21572    0.72178   1.00
H2       0.88145    0.14879    0.71461   1.00
H2       0.70508    -0.08106   0.67717   1.00
H2       0.75763    -0.09683   0.69350   1.00
H2       0.68831    -0.09214   0.70335   1.00
H2       0.86569    0.00481    0.68566   1.00
H2       0.82444    0.02342    0.66606   1.00
H2       0.87507    0.08634    0.68412   1.00
C4       0.47974    0.49796    0.66517   1.00
C4       0.50892    0.47266    0.67957   1.00
C3       0.51680    0.54166    0.64881   1.00
C3       0.57936    0.49341    0.68015   1.00
C3       0.40990    0.47972    0.66727   1.00
C3       0.46578    0.42372    0.69426   1.00
C2       0.41795    0.54968    0.63728   1.00
C2       0.56426    0.42027    0.70947   1.00
C3       0.48692    0.56714    0.63532   1.00
C3       0.60620    0.46749    0.69456   1.00
C3       0.38035    0.50494    0.65327   1.00
C3       0.49432    0.40044    0.70919   1.00
H1       0.56654    0.55607    0.64618   1.00
H1       0.61331    0.52829    0.67021   1.00
C5       0.36996    0.43618    0.68329   1.00
C5       0.39456    0.39870    0.69411   1.00
H1       0.51637    0.59895    0.62386   1.00
H1       0.65743    0.48389    0.69415   1.00
H1       0.32970    0.48990    0.65464   1.00
H1       0.46350    0.36878    0.72038   1.00
O3       0.30653    0.42790    0.68730   1.00
O3       0.35049    0.34215    0.70539   1.00
Si1      0.29846    0.47608    0.70422   1.00
Si1      0.32328    0.26646    0.69579   1.00
C6       0.21206    0.44955    0.69935   1.00
C6       0.30870    0.44848    0.72829   1.00
C6       0.35136    0.56413    0.69952   1.00
C6       0.35401    0.26041    0.67168   1.00
C6       0.34823    0.22651    0.71396   1.00
C6       0.23353    0.22459    0.69562   1.00
C6       0.19227    0.44746    0.67646   1.00
H2       0.18635    0.39636    0.70425   1.00
C6       0.17507    0.48274    0.71079   1.00
H2       0.29415    0.39551    0.72530   1.00
C6       0.38199    0.48224    0.73760   1.00
C6       0.26161    0.44590    0.74605   1.00
H2       0.34240    0.56787    0.68341   1.00
C6       0.33331    0.61409    0.71073   1.00
C6       0.43070    0.59778    0.70222   1.00
C6       0.34303    0.29822    0.65350   1.00
C6       0.42851    0.27342    0.66959   1.00
H2       0.32237    0.20622    0.66824   1.00
H2       0.40362    0.25274    0.71253   1.00
C6       0.33413    0.23602    0.73664   1.00
C6       0.32244    0.14883    0.71103   1.00
H2       0.21915    0.20610    0.71114   1.00
C6       0.20110    0.27021    0.69175   1.00
C6       0.19422    0.16064    0.68161   1.00
H2       0.20638    0.41580    0.66752   1.00
H2       0.21748    0.49854    0.66984   1.00
H2       0.13724    0.42563    0.67467   1.00
H2       0.12136    0.44484    0.71313   1.00
H2       0.19709    0.50292    0.72559   1.00
H2       0.17593    0.52434    0.70217   1.00
H2       0.38383    0.45147    0.75012   1.00
H2       0.41975    0.48651    0.72660   1.00
H2       0.39757    0.53288    0.74360   1.00
H2       0.20780    0.41448    0.74214   1.00
H2       0.26944    0.42306    0.75967   1.00
H2       0.27198    0.49701    0.75008   1.00
H2       0.32961    0.60547    0.72709   1.00
H2       0.37142    0.66757    0.70802   1.00
H2       0.28559    0.60860    0.70524   1.00
H2       0.44677    0.61457    0.71778   1.00
H2       0.45018    0.56431    0.69821   1.00
H2       0.45696    0.64284    0.69252   1.00
H2       0.38239    0.35180    0.65293   1.00
H2       0.34519    0.27539    0.63910   1.00
H2       0.29361    0.29531    0.65412   1.00
H2       0.43653    0.25846    0.65451   1.00
H2       0.46665    0.32690    0.67155   1.00
H2       0.43918    0.24355    0.68041   1.00
H2       0.36146    0.21967    0.74679   1.00
H2       0.35195    0.28952    0.74011   1.00
H2       0.28001    0.20644    0.74038   1.00
H2       0.33208    0.13761    0.69569   1.00
H2       0.34906    0.13227    0.72140   1.00
H2       0.26792    0.11785    0.71416   1.00
H2       0.21403    0.29409    0.67682   1.00
H2       0.14559    0.24115    0.69307   1.00
H2       0.21934    0.31051    0.70302   1.00
H2       0.13972    0.13340    0.68514   1.00
H2       0.19977    0.17507    0.66561   1.00
H2       0.21208    0.12437    0.68364   1.00
C4       0.47780    -0.02434   0.16727   1.00
C4       0.50747    0.03170    0.18114   1.00
C3       0.50231    -0.07052   0.16449   1.00
C3       0.56821    0.05082    0.19221   1.00
C3       0.42105    -0.03467   0.15521   1.00
C3       0.47501    0.07114    0.18428   1.00
C2       0.41711    -0.13438   0.13820   1.00
C2       0.56510    0.14666    0.20855   1.00
C3       0.47309    -0.12380   0.15028   1.00
C3       0.59592    0.10631    0.20569   1.00
C3       0.39148    -0.08949   0.14123   1.00
C3       0.50534    0.12862    0.19727   1.00
H1       0.54197    -0.06695   0.17275   1.00
H1       0.59435    0.02526    0.19073   1.00
C5       0.39403    0.00965    0.15726   1.00
C5       0.41283    0.05348    0.17434   1.00
H1       0.49330    -0.15530   0.14882   1.00
H1       0.63962    0.11741    0.21342   1.00
H1       0.34962    -0.09740   0.13309   1.00
H1       0.48386    0.15889    0.19836   1.00
O3       0.34715    0.00667    0.14336   1.00
O3       0.37385    0.08198    0.18012   1.00
Si1      0.37293    0.05711    0.12366   1.00
Si1      0.32040    0.04775    0.19891   1.00
C6       0.29381    0.02017    0.11092   1.00
C6       0.39743    0.13992    0.13230   1.00
C6       0.43494    0.05068    0.10911   1.00
C6       0.31713    -0.02265   0.21158   1.00
C6       0.34634    0.11578    0.21600   1.00
C6       0.23897    0.02609    0.18973   1.00
C6       0.25432    -0.05960   0.10934   1.00
H2       0.26326    0.03242    0.12105   1.00
C6       0.28729    0.04605    0.08940   1.00
H2       0.36734    0.12933    0.14613   1.00
C6       0.47330    0.18758    0.13883   1.00
C6       0.37902    0.18579    0.11904   1.00
H2       0.41250    -0.00449   0.10757   1.00
C6       0.44770    0.07978    0.08698   1.00
C6       0.50855    0.07830    0.11800   1.00
C6       0.30121    -0.08699   0.19873   1.00
C6       0.37588    -0.01079   0.22652   1.00
H2       0.27311    -0.03911   0.22153   1.00
H2       0.39512    0.12410    0.22172   1.00
C6       0.36190    0.18564    0.20660   1.00
C6       0.30030    0.10382    0.23499   1.00
H2       0.23850    0.07405    0.19020   1.00
C6       0.22381    0.00248    0.16718   1.00
C6       0.17521    -0.02634   0.20218   1.00
H2       0.24636    -0.08339   0.12426   1.00
H2       0.28206    -0.07751   0.09998   1.00
H2       0.20380    -0.07860   0.10267   1.00
H2       0.23724    0.04178    0.08777   1.00
H2       0.32552    0.09898    0.08666   1.00
H2       0.29148    0.01580    0.07717   1.00
H2       0.47846    0.23062    0.14775   1.00
H2       0.49209    0.16125    0.14835   1.00
H2       0.50662    0.20840    0.12564   1.00
H2       0.32436    0.16074    0.11604   1.00
H2       0.39228    0.23359    0.12678   1.00
H2       0.40645    0.19880    0.10462   1.00
H2       0.45923    0.13273    0.08686   1.00
H2       0.49010    0.07792    0.07964   1.00
H2       0.40384    0.04972    0.07731   1.00
H2       0.54200    0.13238    0.11476   1.00
H2       0.50927    0.07214    0.13428   1.00
H2       0.53210    0.05097    0.11123   1.00
H2       0.34680    -0.08156   0.19142   1.00
H2       0.28111    -0.13217   0.20842   1.00
H2       0.26315    -0.09769   0.18706   1.00
H2       0.36192    -0.05708   0.23522   1.00
H2       0.42313    0.00259    0.21862   1.00
H2       0.38632    0.02901    0.23760   1.00
H2       0.38844    0.22682    0.21761   1.00
H2       0.39517    0.19865    0.19336   1.00
H2       0.31548    0.18538    0.20201   1.00
H2       0.28842    0.05687    0.24292   1.00
H2       0.32646    0.14556    0.24586   1.00
H2       0.25253    0.10156    0.23081   1.00
H2       0.22540    -0.04423   0.16453   1.00
H2       0.17398    -0.00607   0.16236   1.00
H2       0.26152    0.04178    0.15739   1.00
H2       0.12899    -0.02750   0.19675   1.00
H2       0.16720    -0.07794   0.20084   1.00
H2       0.18011    -0.01304   0.21822   1.00
C4       1.02166    0.49357    0.16643   1.00
C4       0.96699    0.46850    0.18077   1.00
C3       1.07491    0.47777    0.16717   1.00
C3       0.96347    0.43034    0.19828   1.00
C3       1.02431    0.53779    0.15059   1.00
C3       0.91240    0.48183    0.17756   1.00
C2       1.13223    0.54903    0.13747   1.00
C2       0.85549    0.42092    0.20928   1.00
C3       1.12889    0.50501    0.15317   1.00
C3       0.90895    0.40664    0.21205   1.00
C3       1.07852    0.56372    0.13638   1.00
C3       0.85944    0.46000    0.19207   1.00
H1       1.07592    0.44582    0.17786   1.00
H1       1.00060    0.41900    0.20161   1.00
C5       0.97264    0.55559    0.14898   1.00
C5       0.91115    0.51735    0.16001   1.00
H1       1.16624    0.49218    0.15454   1.00
H1       0.90880    0.37879    0.22435   1.00
H1       1.07873    0.59386    0.12477   1.00
H1       0.82305    0.47370    0.19023   1.00
O3       0.98120    0.60676    0.13591   1.00
O3       0.85306    0.51903    0.15457   1.00
Si1      1.01401    0.68487    0.14422   1.00
Si1      0.79458    0.45607    0.14131   1.00
C6       1.02231    0.72414    0.12045   1.00
C6       0.95164    0.68857    0.15930   1.00
C6       1.09412    0.71554    0.15601   1.00
C6       0.80716    0.38706    0.13529   1.00
C6       0.72132    0.42681    0.15640   1.00
C6       0.78211    0.49124    0.11899   1.00
C6       1.05524    0.70260    0.10315   1.00
H2       0.96919    0.70369    0.11594   1.00
C6       1.05618    0.80367    0.11858   1.00
H2       0.90455    0.64666    0.15313   1.00
C6       0.95007    0.67387    0.18254   1.00
C6       0.94354    0.75314    0.15777   1.00
H2       1.12106    0.70110    0.14512   1.00
C6       1.13934    0.79460    0.15886   1.00
C6       1.09848    0.68533    0.17706   1.00
C6       0.87329    0.40273    0.12346   1.00
C6       0.79734    0.33412    0.15214   1.00
H2       0.76533    0.35747    0.12478   1.00
H2       0.73133    0.40304    0.16934   1.00
C6       0.70834    0.48300    0.16567   1.00
C6       0.65203    0.37132    0.14710   1.00
H2       0.74853    0.51036    0.12371   1.00
C6       0.84636    0.55448    0.11007   1.00
C6       0.74570    0.44230    0.10067   1.00
H2       1.02793    0.64739    0.10097   1.00
H2       1.10846    0.71881    0.10654   1.00
H2       1.05373    0.72509    0.08862   1.00
H2       1.03216    0.81661    0.10630   1.00
H2       1.05151    0.82746    0.13233   1.00
H2       1.11039    0.82809    0.11489   1.00
H2       0.90156    0.66341    0.18922   1.00
H2       0.95490    0.62925    0.18558   1.00
H2       0.99064    0.71750    0.19055   1.00
H2       0.93409    0.76236    0.14218   1.00
H2       0.89992    0.74682    0.16664   1.00
H2       0.98885    0.79841    0.16347   1.00
H2       1.11137    0.81538    0.16677   1.00
H2       1.18571    0.80850    0.16753   1.00
H2       1.15704    0.82041    0.14437   1.00
H2       1.09137    0.71210    0.18976   1.00
H2       1.06129    0.63175    0.17883   1.00
H2       1.14875    0.69022    0.17891   1.00
H2       0.91670    0.41906    0.13360   1.00
H2       0.86620    0.35706    0.11563   1.00
H2       0.88678    0.44196    0.11198   1.00
H2       0.79732    0.28985    0.14549   1.00
H2       0.83796    0.35534    0.16337   1.00
H2       0.74875    0.31452    0.16002   1.00
H2       0.66901    0.46112    0.17741   1.00
H2       0.75425    0.52347    0.17289   1.00
H2       0.69151    0.50622    0.15423   1.00
H2       0.65572    0.32877    0.14076   1.00
H2       0.61246    0.35017    0.15879   1.00
H2       0.63462    0.39262    0.13521   1.00
H2       0.88541    0.54248    0.10545   1.00
H2       0.83355    0.57553    0.09699   1.00
H2       0.86859    0.59456    0.12140   1.00
H2       0.73173    0.46769    0.08908   1.00
H2       0.77869    0.42596    0.09351   1.00
H2       0.69869    0.39696    0.10531   1.00
C4       0.50673    0.52781    0.16623   1.00
C4       0.53188    0.49839    0.18060   1.00
C3       0.53015    0.59875    0.16504   1.00
C3       0.57831    0.53605    0.19637   1.00
C3       0.45448    0.48422    0.15240   1.00
C3       0.50992    0.42744    0.17926   1.00
C2       0.45087    0.58293    0.13741   1.00
C2       0.57918    0.43486    0.20934   1.00
C3       0.50275    0.62555    0.15112   1.00
C3       0.60182    0.50533    0.21023   1.00
C3       0.42841    0.51240    0.13821   1.00
C3       0.53196    0.39690    0.19390   1.00
H1       0.56796    0.63305    0.17422   1.00
H1       0.59608    0.58681    0.19832   1.00
C5       0.42882    0.41280    0.15278   1.00
C5       0.46566    0.38717    0.16345   1.00
H1       0.52136    0.67723    0.15106   1.00
H1       0.63583    0.53521    0.22121   1.00
H1       0.39229    0.48073    0.12801   1.00
H1       0.51239    0.34528    0.19352   1.00
O3       0.37109    0.37001    0.14186   1.00
O3       0.45462    0.32249    0.15945   1.00
Si1      0.29643    0.33548    0.15279   1.00
Si1      0.50830    0.31426    0.14488   1.00
C6       0.24698    0.29960    0.13075   1.00
C6       0.29075    0.27168    0.16934   1.00
C6       0.27872    0.39577    0.16400   1.00
C6       0.57990    0.38903    0.13558   1.00
C6       0.53586    0.26939    0.16024   1.00
C6       0.46116    0.26081    0.12458   1.00
C6       0.26689    0.34806    0.11189   1.00
H2       0.26014    0.26091    0.12660   1.00
C6       0.16699    0.26129    0.13161   1.00
H2       0.32651    0.25853    0.16246   1.00
C6       0.31503    0.29178    0.19178   1.00
C6       0.22142    0.20306    0.17085   1.00
H2       0.29294    0.43362    0.15194   1.00
C6       0.20246    0.37151    0.16926   1.00
C6       0.31916    0.43565    0.18344   1.00
C6       0.56699    0.44008    0.12303   1.00
C6       0.64080    0.43346    0.15019   1.00
H2       0.60169    0.36853    0.12482   1.00
H2       0.56707    0.30642    0.17179   1.00
C6       0.47892    0.20716    0.17220   1.00
C6       0.58190    0.24427    0.15016   1.00
H2       0.43880    0.20945    0.13086   1.00
C6       0.39925    0.26703    0.11703   1.00
C6       0.50087    0.26110    0.10509   1.00
H2       0.32059    0.36943    0.10792   1.00
H2       0.25776    0.39038    0.11475   1.00
H2       0.23745    0.32059    0.09850   1.00
H2       0.14567    0.21971    0.12056   1.00
H2       0.14682    0.23929    0.14641   1.00
H2       0.14661    0.29458    0.12779   1.00
H2       0.32264    0.25268    0.19905   1.00
H2       0.36363    0.33911    0.19272   1.00
H2       0.27739    0.29713    0.20071   1.00
H2       0.20449    0.17908    0.15601   1.00
H2       0.22612    0.16605    0.18037   1.00
H2       0.18173    0.21106    0.17746   1.00
H2       0.18030    0.32567    0.17866   1.00
H2       0.19697    0.41061    0.17740   1.00
H2       0.17192    0.36124    0.15562   1.00
H2       0.29515    0.40795    0.19737   1.00
H2       0.37148    0.44651    0.18369   1.00
H2       0.32094    0.48476    0.18433   1.00
H2       0.55916    0.47434    0.13280   1.00
H2       0.61097    0.47196    0.11341   1.00
H2       0.52302    0.41406    0.11305   1.00
H2       0.68465    0.47192    0.14165   1.00
H2       0.62792    0.46065    0.16133   1.00
H2       0.65845    0.40312    0.15826   1.00
H2       0.50162    0.19005    0.18379   1.00
H2       0.44493    0.22076    0.18009   1.00
H2       0.44803    0.16397    0.16227   1.00
H2       0.62453    0.28516    0.14192   1.00
H2       0.60378    0.22620    0.16174   1.00
H2       0.55277    0.20207    0.13971   1.00
H2       0.41484    0.31760    0.11102   1.00
H2       0.37049    0.22950    0.10528   1.00
H2       0.36436    0.25748    0.12952   1.00
H2       0.46799    0.21887    0.09504   1.00
H2       0.51929    0.30840    0.09652   1.00
H2       0.54446    0.25502    0.10878   1.00
C4       0.64247    0.81149    0.66612   1.00
C4       0.69852    0.84109    0.65226   1.00
C3       0.59905    0.83875    0.66988   1.00
C3       0.72052    0.90415    0.64219   1.00
C3       0.62924    0.75187    0.67716   1.00
C3       0.73494    0.80611    0.64806   1.00
C2       0.53227    0.75058    0.69514   1.00
C2       0.81333    0.89831    0.62479   1.00
C3       0.54571    0.80941    0.68407   1.00
C3       0.77593    0.93169    0.62868   1.00
C3       0.57438    0.72229    0.69113   1.00
C3       0.79243    0.83615    0.63508   1.00
H1       0.60477    0.88060    0.66237   1.00
H1       0.69721    0.93214    0.64446   1.00
C5       0.67071    0.72202    0.67412   1.00
C5       0.71428    0.74168    0.65696   1.00
H1       0.51630    0.83166    0.68625   1.00
H1       0.78917    0.97718    0.62170   1.00
H1       0.56432    0.67845    0.69852   1.00
H1       0.82059    0.81261    0.63324   1.00
O3       0.66516    0.67180    0.68710   1.00
O3       0.73971    0.70106    0.65012   1.00
Si1      0.71559    0.69215    0.70674   1.00
Si1      0.70344    0.65128    0.63067   1.00
C6       0.67526    0.61095    0.71830   1.00
C6       0.79733    0.71407    0.69771   1.00
C6       0.71289    0.75369    0.72255   1.00
C6       0.63493    0.65396    0.61872   1.00
C6       0.77092    0.67691    0.61340   1.00
C6       0.67781    0.56745    0.63848   1.00
C6       0.59561    0.57466    0.71996   1.00
H2       0.68541    0.58062    0.70746   1.00
C6       0.70003    0.59925    0.73938   1.00
H2       0.78533    0.68610    0.68341   1.00
C6       0.84788    0.79031    0.69216   1.00
C6       0.84081    0.69043    0.71009   1.00
H2       0.65808    0.73351    0.72424   1.00
C6       0.74188    0.76148    0.74458   1.00
C6       0.74387    0.82911    0.71481   1.00
C6       0.57160    0.63911    0.63192   1.00
C6       0.64977    0.71604    0.60483   1.00
H2       0.61644    0.61139    0.60810   1.00
H2       0.78175    0.72743    0.60855   1.00
C6       0.83960    0.68740    0.62233   1.00
C6       0.75668    0.63351    0.59367   1.00
H2       0.72432    0.56437    0.63748   1.00
C6       0.65406    0.54949    0.66095   1.00
C6       0.62329    0.50706    0.62537   1.00
H2       0.57206    0.57030    0.70516   1.00
H2       0.57982    0.60255    0.73004   1.00
H2       0.57431    0.52280    0.72583   1.00
H2       0.69304    0.54789    0.74007   1.00
H2       0.75357    0.63504    0.74230   1.00
H2       0.67092    0.60321    0.75199   1.00
H2       0.88994    0.79466    0.68289   1.00
H2       0.82340    0.81262    0.68331   1.00
H2       0.87000    0.82112    0.70576   1.00
H2       0.81340    0.63528    0.71228   1.00
H2       0.88793    0.70264    0.70210   1.00
H2       0.85501    0.71543    0.72488   1.00
H2       0.79391    0.77032    0.74435   1.00
H2       0.74249    0.80385    0.75275   1.00
H2       0.71022    0.71657    0.75369   1.00
H2       0.79825    0.85986    0.71813   1.00
H2       0.73792    0.83290    0.69865   1.00
H2       0.71870    0.85367    0.72233   1.00
H2       0.57948    0.68435    0.64006   1.00
H2       0.52662    0.62263    0.62234   1.00
H2       0.55907    0.59874    0.64294   1.00
H2       0.60404    0.70576    0.59636   1.00
H2       0.66544    0.76243    0.61349   1.00
H2       0.68897    0.72635    0.59354   1.00
H2       0.88106    0.71414    0.61142   1.00
H2       0.85413    0.71859    0.63607   1.00
H2       0.83671    0.63905    0.62601   1.00
H2       0.71043    0.62527    0.58602   1.00
H2       0.79865    0.65981    0.58288   1.00
H2       0.75177    0.58395    0.59692   1.00
H2       0.60883    0.55329    0.66413   1.00
H2       0.64293    0.49806    0.66488   1.00
H2       0.69435    0.58434    0.67104   1.00
H2       0.61955    0.45883    0.62989   1.00
H2       0.57276    0.50151    0.62710   1.00
H2       0.63646    0.51401    0.60930   1.00
C4       0.16923    0.35463    0.66714   1.00
C4       0.14195    0.29883    0.65318   1.00
C3       0.21426    0.36217    0.68320   1.00
C3       0.15197    0.24195    0.65500   1.00
C3       0.14993    0.40552    0.66528   1.00
C3       0.10249    0.29938    0.63638   1.00
C2       0.21948    0.46717    0.69535   1.00
C2       0.08379    0.18723    0.62458   1.00
C3       0.23842    0.41664    0.69699   1.00
C3       0.12424    0.18798    0.64099   1.00
C3       0.17587    0.46078    0.67911   1.00
C3       0.07258    0.24312    0.62293   1.00
H1       0.23102    0.32842    0.68531   1.00
H1       0.17934    0.23785    0.66662   1.00
C5       0.10508    0.40105    0.64955   1.00
C5       0.09253    0.35568    0.63316   1.00
H1       0.27047    0.41917    0.70839   1.00
H1       0.13366    0.14847    0.64296   1.00
H1       0.16308    0.49790    0.67725   1.00
H1       0.04091    0.24227    0.61174   1.00
O3       0.07771    0.44341    0.64980   1.00
O3       0.06650    0.36366    0.61505   1.00
Si1      0.00338    0.41756    0.66027   1.00
Si1      0.11851    0.40074    0.59611   1.00
C6       0.00459    0.49601    0.65894   1.00
C6       -0.05883   0.35652    0.64393   1.00
C6       -0.00111   0.39069    0.68565   1.00
C6       0.20555    0.42635    0.59942   1.00
C6       0.08387    0.33941    0.57676   1.00
C6       0.10996    0.47096    0.58884   1.00
C6       0.07192    0.56024    0.66631   1.00
H2       0.00256    0.50283    0.64260   1.00
C6       -0.05486   0.50411    0.66820   1.00
H2       -0.03294   0.37095    0.62929   1.00
C6       -0.08058   0.27979    0.64702   1.00
C6       -0.12714   0.35699    0.64086   1.00
H2       0.04569    0.43225    0.69214   1.00
C6       -0.06097   0.38511    0.69899   1.00
C6       -0.00025   0.32303    0.69028   1.00
C6       0.24503    0.47627    0.61723   1.00
C6       0.22817    0.37131    0.59937   1.00
H2       0.22851    0.45551    0.58562   1.00
H2       0.09385    0.29936    0.58182   1.00
C6       0.00472    0.30359    0.57390   1.00
C6       0.11602    0.36112    0.55514   1.00
H2       0.06417    0.44855    0.57943   1.00
C6       0.09520    0.50855    0.60620   1.00
C6       0.16785    0.52797    0.57562   1.00
H2       0.11643    0.56551    0.65823   1.00
H2       0.08006    0.55734    0.68253   1.00
H2       0.07050    0.60711    0.66354   1.00
H2       -0.06268   0.54008    0.65914   1.00
H2       -0.10310   0.45642    0.66869   1.00
H2       -0.04362   0.52451    0.68361   1.00
H2       -0.10752   0.24975    0.63366   1.00
H2       -0.03689   0.27272    0.64922   1.00
H2       -0.11478   0.25800    0.65999   1.00
H2       -0.11782   0.40668    0.63567   1.00
H2       -0.15896   0.32030    0.62925   1.00
H2       -0.15678   0.34361    0.65488   1.00
H2       -0.11022   0.35296    0.69170   1.00
H2       -0.06247   0.36363    0.71398   1.00
H2       -0.05504   0.43500    0.70192   1.00
H2       -0.05128   0.27830    0.68987   1.00
H2       0.03093    0.31341    0.67984   1.00
H2       0.02022    0.32535    0.70547   1.00
H2       0.23711    0.44927    0.63154   1.00
H2       0.29989    0.50334    0.61427   1.00
H2       0.23022    0.51480    0.61927   1.00
H2       0.28376    0.39560    0.59867   1.00
H2       0.21198    0.33996    0.61298   1.00
H2       0.20870    0.33773    0.58622   1.00
H2       -0.01318   0.25888    0.56409   1.00
H2       -0.02201   0.28552    0.58835   1.00
H2       -0.01087   0.33751    0.56703   1.00
H2       0.17146    0.38493    0.55558   1.00
H2       0.09731    0.31650    0.54525   1.00
H2       0.10277    0.39655    0.54805   1.00
H2       0.13662    0.53125    0.61721   1.00
H2       0.08664    0.54874    0.60030   1.00
H2       0.04918    0.47276    0.61423   1.00
H2       0.15189    0.56279    0.56957   1.00
H2       0.21423    0.55826    0.58448   1.00
H2       0.18062    0.50671    0.56263   1.00
C4       0.18549    0.83067    0.66708   1.00
C4       0.15690    0.85792    0.65313   1.00
C3       0.14723    0.78303    0.68252   1.00
C3       0.08887    0.84510    0.65439   1.00
C3       0.25648    0.85270    0.66585   1.00
C3       0.19804    0.90030    0.63691   1.00
C2       0.24776    0.78055    0.69533   1.00
C2       0.10335    0.91618    0.62460   1.00
C3       0.17753    0.75893    0.69633   1.00
C3       0.06260    0.87289    0.64041   1.00
C3       0.28583    0.82681    0.67970   1.00
C3       0.17150    0.93015    0.62351   1.00
H1       0.09617    0.76426    0.68414   1.00
H1       0.05654    0.81554    0.66557   1.00
C5       0.29763    0.90024    0.65076   1.00
C5       0.26559    0.91321    0.63425   1.00
H1       0.14740    0.72490    0.70727   1.00
H1       0.01285    0.86138    0.64196   1.00
H1       0.33641    0.84163    0.67828   1.00
H1       0.20294    0.96383    0.61279   1.00
O3       0.36755    0.92987    0.65172   1.00
O3       0.30134    0.94238    0.61660   1.00
Si1      0.41258    1.00324    0.66308   1.00
Si1      0.29061    0.89332    0.59718   1.00
C6       0.49159    1.00546    0.66229   1.00
C6       0.41309    1.06620    0.64723   1.00
C6       0.38652    1.00348    0.68830   1.00
C6       0.23127    0.80522    0.59940   1.00
C6       0.26423    0.92852    0.57791   1.00
C6       0.37146    0.90589    0.59054   1.00
C6       0.49040    0.93856    0.66913   1.00
H2       0.50247    1.00988    0.64605   1.00
C6       0.55683    1.06523    0.67246   1.00
H2       0.40426    1.04226    0.63232   1.00
C6       0.35571    1.08478    0.65008   1.00
C6       0.48069    1.13625    0.64516   1.00
H2       0.38239    0.95668    0.69441   1.00
C6       0.43773    1.06258    0.70247   1.00
C6       0.31610    0.99919    0.69244   1.00
C6       0.24145    0.76480    0.61697   1.00
C6       0.15302    0.77987    0.59862   1.00
H2       0.24022    0.78478    0.58548   1.00
H2       0.21301    0.91603    0.58254   1.00
C6       0.30540    1.00809    0.57595   1.00
C6       0.25754    0.89940    0.55600   1.00
H2       0.39448    0.95282    0.58164   1.00
C6       0.42215    0.92030    0.60837   1.00
C6       0.37462    0.85092    0.57689   1.00
H2       0.45325    0.89443    0.66045   1.00
H2       0.47754    0.92808    0.68520   1.00
H2       0.53994    0.94232    0.66672   1.00
H2       0.60226    1.07586    0.66378   1.00
H2       0.55528    1.11236    0.67332   1.00
H2       0.56481    1.05267    0.68784   1.00
H2       0.35299    1.11268    0.63691   1.00
H2       0.30553    1.03965    0.65159   1.00
H2       0.36534    1.11708    0.66338   1.00
H2       0.52290    1.12949    0.64019   1.00
H2       0.47576    1.16864    0.63375   1.00
H2       0.49433    1.16413    0.65950   1.00
H2       0.45395    1.11238    0.69568   1.00
H2       0.41548    1.06131    0.71731   1.00
H2       0.48246    1.05825    0.70567   1.00
H2       0.32040    1.04940    0.69245   1.00
H2       0.27707    0.96833    0.68149   1.00
H2       0.29664    0.97649    0.70734   1.00
H2       0.21995    0.76993    0.63119   1.00
H2       0.21580    0.71037    0.61340   1.00
H2       0.29499    0.78125    0.61950   1.00
H2       0.12355    0.72430    0.59729   1.00
H2       0.13523    0.79334    0.61223   1.00
H2       0.13938    0.79999    0.58553   1.00
H2       0.27846    1.02572    0.56610   1.00
H2       0.31135    1.03275    0.59065   1.00
H2       0.35605    1.02627    0.56956   1.00
H2       0.22760    0.84382    0.55580   1.00
H2       0.23150    0.91786    0.54607   1.00
H2       0.30748    0.91528    0.54936   1.00
H2       0.40349    0.87762    0.61893   1.00
H2       0.47221    0.93145    0.60289   1.00
H2       0.42966    0.96470    0.61680   1.00
H2       0.42646    0.86942    0.57133   1.00
H2       0.35913    0.80378    0.58528   1.00
H2       0.34201    0.83866    0.56358   1.00
