data_IRMOF10_interpen_symm_ligand11cp_label_k_1.

_audit_creation_method             'generated by an auxiliary program of Tobunporous'

_symmetry_space_group_name_H-M     'P 1'
_symmetry_Int_Tables_number        1
_symmetry_cell_setting             triclinic

_cell_length_a                    22.6523
_cell_length_b                    22.6523
_cell_length_c                    65.9502
_cell_angle_alpha                 90.0000
_cell_angle_beta                  90.0000
_cell_angle_gamma                 120.0000

loop_
_atom_site_label
_atom_site_fract_x
_atom_site_fract_y
_atom_site_fract_z
_atom_site_occupancy
O1       0.00000    0.00000    0.57470   1.00
Zn1      0.00000    0.00000    0.54560   1.00
Zn1      0.94843    0.04287    0.58357   1.00
Zn1      0.09443    0.05157    0.58357   1.00
Zn1      0.95713    0.90557    0.58357   1.00
O2       0.93860    0.02610    0.53560   1.00
O2       0.08750    0.06140    0.53560   1.00
O2       0.97390    0.91250    0.53560   1.00
O2       0.91300    0.07160    0.56150   1.00
O2       0.00463    0.12027    0.60077   1.00
O2       0.87413    0.98077    0.60037   1.00
O2       0.15860    0.08700    0.56150   1.00
O2       0.10663    0.12587    0.60037   1.00
O2       0.11563    0.99537    0.60077   1.00
O2       0.92840    0.84140    0.56150   1.00
O2       0.87973    0.88437    0.60077   1.00
O2       0.01923    0.89337    0.60037   1.00
C1       0.91390    0.06020    0.54330   1.00
C1       0.14630    0.08610    0.54330   1.00
C1       0.93980    0.85370    0.54330   1.00
C1       0.06663    0.14397    0.60637   1.00
C1       0.85603    0.92267    0.60637   1.00
C1       0.07733    0.93337    0.60637   1.00
O1       0.00000    0.00000    0.92530   1.00
Zn1      0.00000    0.00000    0.95440   1.00
Zn1      0.04287    0.94843    0.91643   1.00
Zn1      0.05157    0.09443    0.91643   1.00
Zn1      0.90557    0.95713    0.91643   1.00
O2       0.02610    0.93860    0.96440   1.00
O2       0.06140    0.08750    0.96440   1.00
O2       0.91250    0.97390    0.96440   1.00
O2       0.07160    0.91300    0.93850   1.00
O2       0.12027    0.00463    0.89923   1.00
O2       0.98077    0.87413    0.89963   1.00
O2       0.08700    0.15860    0.93850   1.00
O2       0.12587    0.10663    0.89963   1.00
O2       0.99537    0.11563    0.89923   1.00
O2       0.84140    0.92840    0.93850   1.00
O2       0.88437    0.87973    0.89923   1.00
O2       0.89337    0.01923    0.89963   1.00
C1       0.06020    0.91390    0.95670   1.00
C1       0.08610    0.14630    0.95670   1.00
C1       0.85370    0.93980    0.95670   1.00
C1       0.14397    0.06663    0.89363   1.00
C1       0.92267    0.85603    0.89363   1.00
C1       0.93337    0.07733    0.89363   1.00
O1       0.00000    0.00000    0.42530   1.00
Zn1      0.00000    0.00000    0.45440   1.00
Zn1      0.05157    0.95713    0.41643   1.00
Zn1      0.90557    0.94843    0.41643   1.00
Zn1      0.04287    0.09443    0.41643   1.00
O2       0.06140    0.97390    0.46440   1.00
O2       0.91250    0.93860    0.46440   1.00
O2       0.02610    0.08750    0.46440   1.00
O2       0.08700    0.92840    0.43850   1.00
O2       0.99537    0.87973    0.39923   1.00
O2       0.12587    0.01923    0.39963   1.00
O2       0.84140    0.91300    0.43850   1.00
O2       0.89337    0.87413    0.39963   1.00
O2       0.88437    0.00463    0.39923   1.00
O2       0.07160    0.15860    0.43850   1.00
O2       0.12027    0.11563    0.39923   1.00
O2       0.98077    0.10663    0.39963   1.00
C1       0.08610    0.93980    0.45670   1.00
C1       0.85370    0.91390    0.45670   1.00
C1       0.06020    0.14630    0.45670   1.00
C1       0.93337    0.85603    0.39363   1.00
C1       0.14397    0.07733    0.39363   1.00
C1       0.92267    0.06663    0.39363   1.00
O1       0.00000    0.00000    0.07470   1.00
Zn1      0.00000    0.00000    0.04560   1.00
Zn1      0.95713    0.05157    0.08357   1.00
Zn1      0.94843    0.90557    0.08357   1.00
Zn1      0.09443    0.04287    0.08357   1.00
O2       0.97390    0.06140    0.03560   1.00
O2       0.93860    0.91250    0.03560   1.00
O2       0.08750    0.02610    0.03560   1.00
O2       0.92840    0.08700    0.06150   1.00
O2       0.87973    0.99537    0.10077   1.00
O2       0.01923    0.12587    0.10037   1.00
O2       0.91300    0.84140    0.06150   1.00
O2       0.87413    0.89337    0.10037   1.00
O2       0.00463    0.88437    0.10077   1.00
O2       0.15860    0.07160    0.06150   1.00
O2       0.11563    0.12027    0.10077   1.00
O2       0.10663    0.98077    0.10037   1.00
C1       0.93980    0.08610    0.04330   1.00
C1       0.91390    0.85370    0.04330   1.00
C1       0.14630    0.06020    0.04330   1.00
C1       0.85603    0.93337    0.10637   1.00
C1       0.07733    0.14397    0.10637   1.00
C1       0.06663    0.92267    0.10637   1.00
O1       0.66667    0.33333    0.90803   1.00
Zn1      0.66667    0.33333    0.87893   1.00
Zn1      0.61510    0.37620    0.91690   1.00
Zn1      0.76110    0.38490    0.91690   1.00
Zn1      0.62380    0.23890    0.91690   1.00
O2       0.60527    0.35943    0.86893   1.00
O2       0.75417    0.39473    0.86893   1.00
O2       0.64057    0.24583    0.86893   1.00
O2       0.57967    0.40493    0.89483   1.00
O2       0.67130    0.45360    0.93410   1.00
O2       0.54080    0.31410    0.93370   1.00
O2       0.82527    0.42033    0.89483   1.00
O2       0.77330    0.45920    0.93370   1.00
O2       0.78230    0.32870    0.93410   1.00
O2       0.59507    0.17473    0.89483   1.00
O2       0.54640    0.21770    0.93410   1.00
O2       0.68590    0.22670    0.93370   1.00
C1       0.58057    0.39353    0.87663   1.00
C1       0.81297    0.41943    0.87663   1.00
C1       0.60647    0.18703    0.87663   1.00
C1       0.73330    0.47730    0.93970   1.00
C1       0.52270    0.25600    0.93970   1.00
C1       0.74400    0.26670    0.93970   1.00
O1       0.66667    0.33333    0.25863   1.00
Zn1      0.66667    0.33333    0.28773   1.00
Zn1      0.70953    0.28177    0.24977   1.00
Zn1      0.71823    0.42777    0.24977   1.00
Zn1      0.57223    0.29047    0.24977   1.00
O2       0.69277    0.27193    0.29773   1.00
O2       0.72807    0.42083    0.29773   1.00
O2       0.57917    0.30723    0.29773   1.00
O2       0.73827    0.24633    0.27183   1.00
O2       0.78693    0.33797    0.23257   1.00
O2       0.64743    0.20747    0.23297   1.00
O2       0.75367    0.49193    0.27183   1.00
O2       0.79253    0.43997    0.23297   1.00
O2       0.66203    0.44897    0.23257   1.00
O2       0.50807    0.26173    0.27183   1.00
O2       0.55103    0.21307    0.23257   1.00
O2       0.56003    0.35257    0.23297   1.00
C1       0.72687    0.24723    0.29003   1.00
C1       0.75277    0.47963    0.29003   1.00
C1       0.52037    0.27313    0.29003   1.00
C1       0.81063    0.39997    0.22697   1.00
C1       0.58933    0.18937    0.22697   1.00
C1       0.60003    0.41067    0.22697   1.00
O1       0.66667    0.33333    0.75863   1.00
Zn1      0.66667    0.33333    0.78773   1.00
Zn1      0.71823    0.29047    0.74977   1.00
Zn1      0.57223    0.28177    0.74977   1.00
Zn1      0.70953    0.42777    0.74977   1.00
O2       0.72807    0.30723    0.79773   1.00
O2       0.57917    0.27193    0.79773   1.00
O2       0.69277    0.42083    0.79773   1.00
O2       0.75367    0.26173    0.77183   1.00
O2       0.66203    0.21307    0.73257   1.00
O2       0.79253    0.35257    0.73297   1.00
O2       0.50807    0.24633    0.77183   1.00
O2       0.56003    0.20747    0.73297   1.00
O2       0.55103    0.33797    0.73257   1.00
O2       0.73827    0.49193    0.77183   1.00
O2       0.78693    0.44897    0.73257   1.00
O2       0.64743    0.43997    0.73297   1.00
C1       0.75277    0.27313    0.79003   1.00
C1       0.52037    0.24723    0.79003   1.00
C1       0.72687    0.47963    0.79003   1.00
C1       0.60003    0.18937    0.72697   1.00
C1       0.81063    0.41067    0.72697   1.00
C1       0.58933    0.39997    0.72697   1.00
O1       0.66667    0.33333    0.40803   1.00
Zn1      0.66667    0.33333    0.37893   1.00
Zn1      0.62380    0.38490    0.41690   1.00
Zn1      0.61510    0.23890    0.41690   1.00
Zn1      0.76110    0.37620    0.41690   1.00
O2       0.64057    0.39473    0.36893   1.00
O2       0.60527    0.24583    0.36893   1.00
O2       0.75417    0.35943    0.36893   1.00
O2       0.59507    0.42033    0.39483   1.00
O2       0.54640    0.32870    0.43410   1.00
O2       0.68590    0.45920    0.43370   1.00
O2       0.57967    0.17473    0.39483   1.00
O2       0.54080    0.22670    0.43370   1.00
O2       0.67130    0.21770    0.43410   1.00
O2       0.82527    0.40493    0.39483   1.00
O2       0.78230    0.45360    0.43410   1.00
O2       0.77330    0.31410    0.43370   1.00
C1       0.60647    0.41943    0.37663   1.00
C1       0.58057    0.18703    0.37663   1.00
C1       0.81297    0.39353    0.37663   1.00
C1       0.52270    0.26670    0.43970   1.00
C1       0.74400    0.47730    0.43970   1.00
C1       0.73330    0.25600    0.43970   1.00
O1       0.33333    0.66667    0.24137   1.00
Zn1      0.33333    0.66667    0.21227   1.00
Zn1      0.28177    0.70953    0.25023   1.00
Zn1      0.42777    0.71823    0.25023   1.00
Zn1      0.29047    0.57223    0.25023   1.00
O2       0.27193    0.69277    0.20227   1.00
O2       0.42083    0.72807    0.20227   1.00
O2       0.30723    0.57917    0.20227   1.00
O2       0.24633    0.73827    0.22817   1.00
O2       0.33797    0.78693    0.26743   1.00
O2       0.20747    0.64743    0.26703   1.00
O2       0.49193    0.75367    0.22817   1.00
O2       0.43997    0.79253    0.26703   1.00
O2       0.44897    0.66203    0.26743   1.00
O2       0.26173    0.50807    0.22817   1.00
O2       0.21307    0.55103    0.26743   1.00
O2       0.35257    0.56003    0.26703   1.00
C1       0.24723    0.72687    0.20997   1.00
C1       0.47963    0.75277    0.20997   1.00
C1       0.27313    0.52037    0.20997   1.00
C1       0.39997    0.81063    0.27303   1.00
C1       0.18937    0.58933    0.27303   1.00
C1       0.41067    0.60003    0.27303   1.00
O1       0.33333    0.66667    0.59197   1.00
Zn1      0.33333    0.66667    0.62107   1.00
Zn1      0.37620    0.61510    0.58310   1.00
Zn1      0.38490    0.76110    0.58310   1.00
Zn1      0.23890    0.62380    0.58310   1.00
O2       0.35943    0.60527    0.63107   1.00
O2       0.39473    0.75417    0.63107   1.00
O2       0.24583    0.64057    0.63107   1.00
O2       0.40493    0.57967    0.60517   1.00
O2       0.45360    0.67130    0.56590   1.00
O2       0.31410    0.54080    0.56630   1.00
O2       0.42033    0.82527    0.60517   1.00
O2       0.45920    0.77330    0.56630   1.00
O2       0.32870    0.78230    0.56590   1.00
O2       0.17473    0.59507    0.60517   1.00
O2       0.21770    0.54640    0.56590   1.00
O2       0.22670    0.68590    0.56630   1.00
C1       0.39353    0.58057    0.62337   1.00
C1       0.41943    0.81297    0.62337   1.00
C1       0.18703    0.60647    0.62337   1.00
C1       0.47730    0.73330    0.56030   1.00
C1       0.25600    0.52270    0.56030   1.00
C1       0.26670    0.74400    0.56030   1.00
O1       0.33333    0.66667    0.09197   1.00
Zn1      0.33333    0.66667    0.12107   1.00
Zn1      0.38490    0.62380    0.08310   1.00
Zn1      0.23890    0.61510    0.08310   1.00
Zn1      0.37620    0.76110    0.08310   1.00
O2       0.39473    0.64057    0.13107   1.00
O2       0.24583    0.60527    0.13107   1.00
O2       0.35943    0.75417    0.13107   1.00
O2       0.42033    0.59507    0.10517   1.00
O2       0.32870    0.54640    0.06590   1.00
O2       0.45920    0.68590    0.06630   1.00
O2       0.17473    0.57967    0.10517   1.00
O2       0.22670    0.54080    0.06630   1.00
O2       0.21770    0.67130    0.06590   1.00
O2       0.40493    0.82527    0.10517   1.00
O2       0.45360    0.78230    0.06590   1.00
O2       0.31410    0.77330    0.06630   1.00
C1       0.41943    0.60647    0.12337   1.00
C1       0.18703    0.58057    0.12337   1.00
C1       0.39353    0.81297    0.12337   1.00
C1       0.26670    0.52270    0.06030   1.00
C1       0.47730    0.74400    0.06030   1.00
C1       0.25600    0.73330    0.06030   1.00
O1       0.33333    0.66667    0.74137   1.00
Zn1      0.33333    0.66667    0.71227   1.00
Zn1      0.29047    0.71823    0.75023   1.00
Zn1      0.28177    0.57223    0.75023   1.00
Zn1      0.42777    0.70953    0.75023   1.00
O2       0.30723    0.72807    0.70227   1.00
O2       0.27193    0.57917    0.70227   1.00
O2       0.42083    0.69277    0.70227   1.00
O2       0.26173    0.75367    0.72817   1.00
O2       0.21307    0.66203    0.76743   1.00
O2       0.35257    0.79253    0.76703   1.00
O2       0.24633    0.50807    0.72817   1.00
O2       0.20747    0.56003    0.76703   1.00
O2       0.33797    0.55103    0.76743   1.00
O2       0.49193    0.73827    0.72817   1.00
O2       0.44897    0.78693    0.76743   1.00
O2       0.43997    0.64743    0.76703   1.00
C1       0.27313    0.75277    0.70997   1.00
C1       0.24723    0.52037    0.70997   1.00
C1       0.47963    0.72687    0.70997   1.00
C1       0.18937    0.60003    0.77303   1.00
C1       0.41067    0.81063    0.77303   1.00
C1       0.39997    0.58933    0.77303   1.00
C5       0.88326    0.95954    0.50052   1.00
H2       0.85287    0.94871    0.51465   1.00
H2       0.84689    0.94862    0.48785   1.00
C5       0.93993    1.03543    0.50023   1.00
H2       0.91931    1.06838    0.49505   1.00
H2       0.98182    1.04261    0.48987   1.00
O_3      0.94941    0.70902    0.46488   1.00
C4       0.86551    0.69545    0.49812   1.00
C3c      0.85455    0.75117    0.49698   1.00
H1       0.82694    0.75561    0.48425   1.00
C3d      0.90075    0.69010    0.51499   1.00
C3       0.87965    0.80230    0.51199   1.00
O2       0.85985    0.85065    0.51115   1.00
C3       0.92694    0.74160    0.52976   1.00
H1       0.95572    0.73655    0.54204   1.00
C2       0.91696    0.79868    0.52873   1.00
C5       0.99949    0.69156    0.46974   1.00
H2       0.99775    0.65181    0.45938   1.00
H2       0.99323    0.67227    0.48562   1.00
C5       1.06878    0.75560    0.46765   1.00
H2       1.06983    0.79594    0.47757   1.00
H2       1.07473    0.77403    0.45169   1.00
C5       1.12633    0.74166    0.47338   1.00
H2       1.12528    0.70109    0.46363   1.00
H2       1.12178    0.72553    0.48952   1.00
H2       1.17663    0.78866    0.47133   1.00
C5       0.86328    0.58079    0.52523   1.00
C5       0.90881    0.90843    0.50033   1.00
H2       0.81578    0.56042    0.51609   1.00
H2       0.85264    0.59197    0.54086   1.00
H2       0.91284    0.89397    0.48442   1.00
H2       0.96080    0.93164    0.50725   1.00
H2       0.96116    1.05361    0.51575   1.00
H2       0.78734    0.43567    0.51781   1.00
H2       0.79529    0.45671    0.54465   1.00
C2       0.79717    0.54245    0.45185   1.00
C3       0.75291    0.53638    0.46781   1.00
O2       0.69487    0.47477    0.47163   1.00
C3       0.86259    0.60144    0.45107   1.00
H1       0.89701    0.60846    0.43876   1.00
C3a      0.77528    0.58779    0.48275   1.00
H1       0.74226    0.58053    0.49549   1.00
C3b      0.88547    0.65141    0.46630   1.00
C4       0.84180    0.64479    0.48233   1.00
O_3      0.91734    0.63909    0.51606   1.00
C5       0.63697    0.47522    0.46392   1.00
H2       0.63076    0.51659    0.47100   1.00
C5       0.57496    0.40595    0.46904   1.00
H2       0.64063    0.48256    0.44715   1.00
H2       0.56094    0.40677    0.48518   1.00
H2       0.59121    0.36705    0.46794   1.00
C5       0.51348    0.38714    0.45504   1.00
H2       0.50140    0.42904    0.45510   1.00
H2       0.46779    0.33941    0.46028   1.00
H2       0.52392    0.37760    0.43915   1.00
C5       0.88429    0.52667    0.52642   1.00
H2       0.92435    0.54210    0.53829   1.00
H2       0.90821    0.52614    0.51170   1.00
C5       0.82326    0.45546    0.53093   1.00
H2       0.84145    0.41883    0.53379   1.00
C5       0.29747    0.26804    0.57855   1.00
H2       0.24984    0.26963    0.57594   1.00
H2       0.33994    0.32075    0.57582   1.00
C5       0.29909    0.24637    0.60071   1.00
H2       0.31672    0.29059    0.61119   1.00
H2       0.33405    0.22530    0.60199   1.00
O_3      0.41555    0.14871    0.50007   1.00
C4       0.30357    0.17021    0.49784   1.00
C3c      0.30778    0.20829    0.51514   1.00
H1       0.35058    0.25931    0.51695   1.00
C3d      0.24688    0.10420    0.49563   1.00
C3       0.25775    0.18110    0.53046   1.00
O2       0.26090    0.22417    0.54568   1.00
C3       0.19765    0.07649    0.51104   1.00
H1       0.15636    0.02478    0.50901   1.00
C2       0.20151    0.11402    0.52874   1.00
C5       0.39915    0.08265    0.49376   1.00
H2       0.43368    0.08385    0.48151   1.00
H2       0.34561    0.05338    0.48809   1.00
C5       0.40677    0.04606    0.51202   1.00
H2       0.37371    0.04654    0.52446   1.00
H2       0.46054    0.07537    0.51743   1.00
C5       0.38747    -0.02734   0.50665   1.00
H2       0.41997    -0.02822   0.49414   1.00
H2       0.33309    -0.05731   0.50191   1.00
H2       0.39479    -0.05277   0.52005   1.00
C5       0.21160    0.07481    0.46291   1.00
C5       0.29777    0.21973    0.56235   1.00
H2       0.24210    0.12838    0.45753   1.00
H2       0.15912    0.06413    0.46668   1.00
H2       0.35115    0.23599    0.55771   1.00
H2       0.27476    0.16671    0.56850   1.00
H2       0.24707    0.20725    0.60599   1.00
H2       0.23534    0.09735    0.41983   1.00
H2       0.14528    0.05369    0.42634   1.00
C2       0.45790    0.24712    0.45187   1.00
C3       0.40412    0.26161    0.45101   1.00
O2       0.39075    0.28518    0.43329   1.00
C3       0.46104    0.20988    0.46867   1.00
H1       0.50252    0.19948    0.47004   1.00
C3a      0.35432    0.23739    0.46647   1.00
H1       0.31137    0.24555    0.46500   1.00
C3b      0.41025    0.18401    0.48367   1.00
C4       0.35625    0.19754    0.48264   1.00
O_3      0.24294    0.06274    0.47966   1.00
C5       0.41657    0.35613    0.43451   1.00
H2       0.39308    0.36913    0.44739   1.00
C5       0.39876    0.37799    0.41453   1.00
H2       0.47299    0.38407    0.43656   1.00
H2       0.34448    0.36514    0.41519   1.00
H2       0.40220    0.34602    0.40226   1.00
C5       0.44559    0.45441    0.40987   1.00
H2       0.44568    0.48534    0.42296   1.00
H2       0.42756    0.46954    0.39617   1.00
H2       0.49894    0.46645    0.40660   1.00
C5       0.20724    0.02733    0.44590   1.00
H2       0.16751    -0.02565   0.44993   1.00
H2       0.25674    0.02805    0.44514   1.00
C5       0.19144    0.04836    0.42529   1.00
H2       0.18161    0.00881    0.41371   1.00
C5       0.76189    0.07570    0.58298   1.00
H2       0.75068    0.02212    0.58199   1.00
H2       0.71184    0.07336    0.58174   1.00
C5       0.79560    0.10637    0.60367   1.00
H2       0.75642    0.09074    0.61581   1.00
H2       0.82476    0.16303    0.60271   1.00
O_3      0.87312    0.27326    0.49538   1.00
C4       0.82963    0.13327    0.49786   1.00
C3c      0.79784    0.11171    0.51685   1.00
H1       0.75176    0.11322    0.51999   1.00
C3d      0.88909    0.12997    0.49396   1.00
C3       0.82523    0.08890    0.53211   1.00
O2       0.78697    0.06087    0.54934   1.00
C3       0.91721    0.10852    0.50926   1.00
H1       0.96419    0.10915    0.50582   1.00
C2       0.88613    0.08724    0.52862   1.00
C5       0.93774    0.31137    0.48615   1.00
H2       0.93678    0.34191    0.47302   1.00
H2       0.95696    0.27740    0.48069   1.00
C5       0.98658    0.35994    0.50200   1.00
H2       0.98610    0.32956    0.51536   1.00
H2       0.96724    0.39401    0.50720   1.00
C5       1.05895    0.40184    0.49340   1.00
H2       1.05973    0.43194    0.47997   1.00
H2       1.07921    0.36802    0.48885   1.00
H2       1.09359    0.43809    0.50506   1.00
C5       0.89902    0.10378    0.46119   1.00
C5       0.80590    0.11165    0.56440   1.00
H2       0.84472    0.08669    0.45776   1.00
H2       0.90300    0.05865    0.46601   1.00
H2       0.79571    0.15241    0.55899   1.00
H2       0.86127    0.13661    0.56838   1.00
H2       0.83069    0.08757    0.60845   1.00
H2       0.85905    0.09031    0.41909   1.00
H2       0.89292    0.03531    0.42604   1.00
C2       0.75315    0.21034    0.45166   1.00
C3       0.72793    0.13953    0.45329   1.00
O2       0.69221    0.09655    0.43746   1.00
C3       0.80122    0.25405    0.46618   1.00
H1       0.82018    0.30831    0.46567   1.00
C3a      0.75226    0.11439    0.46884   1.00
H1       0.73538    0.06051    0.46918   1.00
C3b      0.82693    0.22912    0.48122   1.00
C4       0.80260    0.15884    0.48263   1.00
O_3      0.92515    0.15540    0.47610   1.00
C5       0.62165    0.06196    0.44163   1.00
H2       0.60970    0.03096    0.45578   1.00
C5       0.58593    0.01475    0.42361   1.00
H2       0.60266    0.09859    0.44335   1.00
H2       0.59048    -0.03175   0.42530   1.00
H2       0.61489    0.04132    0.40968   1.00
C5       0.51047    -0.00475   0.42159   1.00
H2       0.48361    -0.02625   0.43617   1.00
H2       0.48481    -0.04348   0.40943   1.00
H2       0.50541    0.04031    0.41732   1.00
C5       0.94093    0.13362    0.44200   1.00
H2       0.99237    0.13971    0.44442   1.00
H2       0.94845    0.18569    0.43973   1.00
C5       0.90617    0.08902    0.42327   1.00
H2       0.94121    0.10838    0.41004   1.00
C5       0.96932    0.90657    0.00218   1.00
H2       0.96088    0.87351    -0.01121   1.00
H2       0.96126    0.87401    0.01567   1.00
C5       1.04323    0.96746    0.00183   1.00
H2       1.07949    0.95222    0.00795   1.00
H2       1.04680    1.01020    0.01111   1.00
O_3      0.70177    0.95387    0.03290   1.00
C4       0.69548    0.86546    0.00189   1.00
C3c      0.75461    0.86058    0.00399   1.00
H1       0.76177    0.83778    0.01749   1.00
C3d      0.68669    0.89445    -0.01595   1.00
C3       0.80567    0.88571    -0.01104   1.00
O2       0.85794    0.87170    -0.00908   1.00
C3       0.73802    0.92070    -0.03077   1.00
H1       0.73012    0.94466    -0.04386   1.00
C2       0.79848    0.91686    -0.02879   1.00
C5       0.67893    0.99854    0.02648   1.00
H2       0.63760    0.99555    0.03638   1.00
H2       0.65943    0.98714    0.01059   1.00
C5       0.73930    1.07069    0.02744   1.00
H2       0.78131    1.07320    0.01800   1.00
H2       0.75793    1.08174    0.04340   1.00
C5       0.71945    1.12257    0.01999   1.00
H2       0.67719    1.12001    0.02926   1.00
H2       0.70308    1.11302    0.00383   1.00
H2       0.76380    1.17512    0.02122   1.00
C5       0.57616    0.84632    -0.02644   1.00
C5       0.91363    0.92601    0.00106   1.00
H2       0.55929    0.80151    -0.01628   1.00
H2       0.58885    0.83368    -0.04160   1.00
H2       0.89814    0.93213    0.01663   1.00
H2       0.93304    0.97585    -0.00698   1.00
H2       1.06027    0.98570    -0.01400   1.00
H2       0.43180    0.76244    -0.01872   1.00
H2       0.45308    0.76576    -0.04544   1.00
C2       0.54209    0.79699    0.04805   1.00
C3       0.53990    0.75081    0.03327   1.00
O2       0.48102    0.68915    0.03031   1.00
C3       0.59756    0.86468    0.04774   1.00
H1       0.60165    0.90079    0.05916   1.00
C3a      0.59150    0.77340    0.01838   1.00
H1       0.58702    0.73850    0.00649   1.00
C3b      0.64760    0.88755    0.03254   1.00
C4       0.64479    0.84188    0.01767   1.00
O_3      0.63193    0.90512    -0.01808   1.00
C5       0.48684    0.63613    0.03958   1.00
H2       0.53059    0.63251    0.03319   1.00
C5       0.42035    0.56969    0.03534   1.00
H2       0.49411    0.64415    0.05628   1.00
H2       0.42254    0.55277    0.01964   1.00
H2       0.37825    0.58168    0.03552   1.00
C5       0.40639    0.51291    0.05074   1.00
H2       0.45121    0.50539    0.05152   1.00
H2       0.36084    0.46393    0.04619   1.00
H2       0.39542    0.52557    0.06618   1.00
C5       0.51776    0.86085    -0.02885   1.00
H2       0.53018    0.89751    -0.04159   1.00
H2       0.51495    0.88685    -0.01484   1.00
C5       0.44915    0.79530    -0.03254   1.00
H2       0.40926    0.80843    -0.03632   1.00
C5       0.26772    0.29772    -0.07861   1.00
H2       0.26942    0.25014    -0.07602   1.00
H2       0.32040    0.34026    -0.07590   1.00
C5       0.24589    0.29930    -0.10076   1.00
H2       0.29006    0.31700    -0.11126   1.00
H2       0.22471    0.33416    -0.10202   1.00
O_3      0.14842    0.41537    -0.00002   1.00
C4       0.17022    0.30357    0.00216   1.00
C3c      0.20823    0.30787    -0.01517   1.00
H1       0.25920    0.35074    -0.01700   1.00
C3d      0.10427    0.24679    0.00439   1.00
C3       0.18103    0.25783    -0.03048   1.00
O2       0.22406    0.26108    -0.04573   1.00
C3       0.07655    0.19756    -0.01101   1.00
H1       0.02489    0.15619    -0.00897   1.00
C2       0.11402    0.20151    -0.02874   1.00
C5       0.08236    0.39884    0.00633   1.00
H2       0.08355    0.43333    0.01859   1.00
H2       0.05321    0.34530    0.01200   1.00
C5       0.04560    0.40637    -0.01190   1.00
H2       0.04609    0.37335    -0.02435   1.00
H2       0.07479    0.46015    -0.01731   1.00
C5       -0.02780   0.38693    -0.00648   1.00
H2       -0.02869   0.41938    0.00604   1.00
H2       -0.05766   0.33254    -0.00175   1.00
H2       -0.05336   0.39418    -0.01987   1.00
C5       0.07511    0.21148    0.03712   1.00
C5       0.21944    0.29791    -0.06239   1.00
H2       0.12870    0.24207    0.04247   1.00
H2       0.06452    0.15904    0.03334   1.00
H2       0.23562    0.35126    -0.05774   1.00
H2       0.16637    0.27480    -0.06851   1.00
H2       0.20682    0.24724    -0.10604   1.00
H2       0.09786    0.23524    0.08020   1.00
H2       0.05433    0.14518    0.07368   1.00
C2       0.24712    0.45789    0.04813   1.00
C3       0.26175    0.40421    0.04896   1.00
O2       0.28548    0.39090    0.06666   1.00
C3       0.20973    0.46094    0.03136   1.00
H1       0.19922    0.50236    0.03001   1.00
C3a      0.23753    0.35441    0.03351   1.00
H1       0.24581    0.31153    0.03496   1.00
C3b      0.18386    0.41015    0.01636   1.00
C4       0.19754    0.35625    0.01736   1.00
O_3      0.06286    0.24276    0.02039   1.00
C5       0.35645    0.41686    0.06540   1.00
H2       0.36944    0.39342    0.05251   1.00
C5       0.37848    0.39911    0.08536   1.00
H2       0.38428    0.47328    0.06336   1.00
H2       0.36573    0.34487    0.08469   1.00
H2       0.34654    0.40248    0.09766   1.00
C5       0.45490    0.44606    0.08999   1.00
H2       0.48580    0.44623    0.07687   1.00
H2       0.47017    0.42809    0.10368   1.00
H2       0.46686    0.49938    0.09327   1.00
C5       0.02769    0.20701    0.05416   1.00
H2       -0.02529   0.16721    0.05015   1.00
H2       0.02829    0.25646    0.05494   1.00
C5       0.04889    0.19127    0.07475   1.00
H2       0.00939    0.18136    0.08635   1.00
C5       0.07569    0.76188    -0.08298   1.00
H2       0.02211    0.75068    -0.08199   1.00
H2       0.07335    0.71184    -0.08174   1.00
C5       0.10636    0.79559    -0.10367   1.00
H2       0.09072    0.75641    -0.11581   1.00
H2       0.16302    0.82475    -0.10271   1.00
O_3      0.27326    0.87312    0.00462   1.00
C4       0.13327    0.82963    0.00214   1.00
C3c      0.11171    0.79784    -0.01685   1.00
H1       0.11321    0.75176    -0.01999   1.00
C3d      0.12998    0.88909    0.00604   1.00
C3       0.08890    0.82523    -0.03211   1.00
O2       0.06086    0.78696    -0.04934   1.00
C3       0.10852    0.91721    -0.00926   1.00
H1       0.10915    0.96420    -0.00582   1.00
C2       0.08725    0.88613    -0.02862   1.00
C5       0.31137    0.93774    0.01385   1.00
H2       0.34191    0.93677    0.02697   1.00
H2       0.27741    0.95696    0.01931   1.00
C5       0.35994    0.98658    -0.00200   1.00
H2       0.32956    0.98609    -0.01536   1.00
H2       0.39400    0.96723    -0.00720   1.00
C5       0.40184    1.05894    0.00660   1.00
H2       0.43194    1.05972    0.02003   1.00
H2       0.36803    1.07921    0.01115   1.00
H2       0.43810    1.09358    -0.00506   1.00
C5       0.10379    0.89902    0.03881   1.00
C5       0.11164    0.80589    -0.06440   1.00
H2       0.08669    0.84473    0.04224   1.00
H2       0.05866    0.90301    0.03399   1.00
H2       0.15240    0.79571    -0.05899   1.00
H2       0.13660    0.86126    -0.06838   1.00
H2       0.08756    0.83068    -0.10845   1.00
H2       0.09032    0.85906    0.08091   1.00
H2       0.03532    0.89293    0.07396   1.00
C2       0.21034    0.75315    0.04834   1.00
C3       0.13953    0.72793    0.04671   1.00
O2       0.09655    0.69222    0.06254   1.00
C3       0.25404    0.80121    0.03382   1.00
H1       0.30830    0.82018    0.03433   1.00
C3a      0.11440    0.75226    0.03116   1.00
H1       0.06051    0.73538    0.03082   1.00
C3b      0.22912    0.82693    0.01877   1.00
C4       0.15884    0.80260    0.01737   1.00
O_3      0.15541    0.92515    0.02390   1.00
C5       0.06196    0.62165    0.05838   1.00
H2       0.03096    0.60970    0.04422   1.00
C5       0.01475    0.58594    0.07639   1.00
H2       0.09859    0.60266    0.05665   1.00
H2       -0.03174   0.59048    0.07471   1.00
H2       0.04132    0.61490    0.09032   1.00
C5       -0.00475   0.51048    0.07841   1.00
H2       -0.02626   0.48362    0.06383   1.00
H2       -0.04349   0.48482    0.09057   1.00
H2       0.04031    0.50542    0.08268   1.00
C5       0.13363    0.94094    0.05800   1.00
H2       0.13972    0.99237    0.05558   1.00
H2       0.18570    0.94846    0.06027   1.00
C5       0.08903    0.90618    0.07673   1.00
H2       0.10839    0.94122    0.08996   1.00
C5       0.08406    0.31600    0.41645   1.00
H2       0.11804    0.29658    0.41143   1.00
H2       0.11503    0.37244    0.41540   1.00
C5       0.02165    0.28856    0.40214   1.00
H2       0.03468    0.31962    0.38803   1.00
H2       -0.02126   0.28995    0.40992   1.00
O_3      0.04475    0.34023    0.52028   1.00
C4       0.13456    0.30398    0.50205   1.00
C3c      0.13696    0.32049    0.48142   1.00
H1       0.15779    0.37314    0.47695   1.00
C3d      0.10812    0.23516    0.50753   1.00
C3       0.11181    0.26967    0.46632   1.00
O2       0.12344    0.29031    0.44637   1.00
C3       0.08185    0.18432    0.49257   1.00
H1       0.05987    0.13203    0.49756   1.00
C2       0.08319    0.20005    0.47165   1.00
C5       0.00239    0.29262    0.53503   1.00
H2       0.00594    0.31705    0.55000   1.00
H2       0.01577    0.25185    0.53724   1.00
C5       -0.07068   0.26046    0.52752   1.00
H2       -0.07382   0.23771    0.51229   1.00
H2       -0.08369   0.30152    0.52554   1.00
C5       -0.12013   0.20604    0.54238   1.00
H2       -0.11691   0.22831    0.55765   1.00
H2       -0.10866   0.16383    0.54382   1.00
H2       -0.17341   0.18418    0.53685   1.00
C5       0.16039    0.21960    0.53493   1.00
C5       0.06717    0.29409    0.43864   1.00
H2       0.20401    0.27272    0.53419   1.00
H2       0.17371    0.18582    0.52611   1.00
H2       0.06030    0.33255    0.44732   1.00
H2       0.01833    0.24433    0.43972   1.00
H2       0.00461    0.23513    0.39724   1.00
H2       0.24727    0.27240    0.57016   1.00
H2       0.24571    0.19755    0.55954   1.00
C2       0.20310    0.45530    0.54883   1.00
C3       0.24983    0.44052    0.53915   1.00
O2       0.31275    0.46102    0.54772   1.00
C3       0.13469    0.42154    0.54200   1.00
H1       0.09808    0.43301    0.54874   1.00
C3a      0.22715    0.39170    0.52343   1.00
H1       0.26265    0.37813    0.51697   1.00
C3b      0.11182    0.37144    0.52681   1.00
C4       0.15810    0.35604    0.51742   1.00
O_3      0.09988    0.21569    0.52770   1.00
C5       0.36367    0.51942    0.53770   1.00
H2       0.36619    0.50915    0.52124   1.00
C5       0.43167    0.53812    0.54781   1.00
H2       0.35398    0.56289    0.53915   1.00
H2       0.44964    0.50399    0.54171   1.00
H2       0.42146    0.52609    0.56427   1.00
C5       0.48643    0.61356    0.54475   1.00
H2       0.49207    0.62603    0.52831   1.00
H2       0.53657    0.62378    0.55082   1.00
H2       0.47300    0.64834    0.55303   1.00
C5       0.14852    0.19659    0.55698   1.00
H2       0.11330    0.14042    0.55739   1.00
H2       0.12184    0.22050    0.56465   1.00
C5       0.21569    0.21606    0.56805   1.00
H2       0.20465    0.19241    0.58337   1.00
C5       0.70814    0.72519    0.42301   1.00
H2       0.71627    0.77123    0.41465   1.00
H2       0.65257    0.68828    0.42210   1.00
C5       0.74905    0.69557    0.41267   1.00
H2       0.72100    0.66394    0.39929   1.00
H2       0.75815    0.66354    0.42361   1.00
O_3      0.68653    0.72821    0.52828   1.00
C4       0.69584    0.83049    0.50200   1.00
C3c      0.68354    0.80217    0.48245   1.00
H1       0.63417    0.75907    0.47881   1.00
C3d      0.76021    0.88726    0.50634   1.00
C3       0.73461    0.82812    0.46742   1.00
O2       0.71635    0.80325    0.44800   1.00
C3       0.81158    0.91239    0.49153   1.00
H1       0.86087    0.95445    0.49577   1.00
C2       0.80023    0.88388    0.47174   1.00
C5       0.73610    0.75427    0.54381   1.00
H2       0.71291    0.73939    0.55920   1.00
H2       0.76681    0.81107    0.54313   1.00
C5       0.78302    0.72512    0.54069   1.00
H2       0.80470    0.73835    0.52510   1.00
H2       0.75194    0.66845    0.54159   1.00
C5       0.84016    0.75288    0.55658   1.00
H2       0.81885    0.74026    0.57220   1.00
H2       0.87266    0.80923    0.55523   1.00
H2       0.87303    0.72986    0.55433   1.00
C5       0.75679    0.96330    0.52831   1.00
C5       0.72860    0.74847    0.44497   1.00
H2       0.70071    0.94057    0.52659   1.00
H2       0.78282    1.00587    0.51720   1.00
H2       0.69696    0.70600    0.45565   1.00
H2       0.78315    0.76347    0.44759   1.00
H2       0.79912    0.73705    0.40684   1.00
H2       0.68584    0.99769    0.55828   1.00
H2       0.75060    1.07185    0.54474   1.00
C2       0.54521    0.74913    0.54899   1.00
C3       0.54662    0.79778    0.53531   1.00
O2       0.51207    0.83199    0.53972   1.00
C3       0.59219    0.72594    0.54611   1.00
H1       0.59127    0.68744    0.55601   1.00
C3a      0.59544    0.82319    0.51958   1.00
H1       0.59840    0.86323    0.50994   1.00
C3b      0.64208    0.75291    0.53086   1.00
C4       0.64411    0.80203    0.51746   1.00
O_3      0.77657    0.91374    0.52576   1.00
C5       0.45066    0.80395    0.52861   1.00
H2       0.46047    0.80745    0.51193   1.00
C5       0.41613    0.84520    0.53406   1.00
H2       0.41630    0.74940    0.53269   1.00
H2       0.44095    0.89357    0.52522   1.00
H2       0.42713    0.85975    0.55034   1.00
C5       0.33857    0.80583    0.53019   1.00
H2       0.32838    0.78707    0.51428   1.00
H2       0.31628    0.83931    0.53269   1.00
H2       0.31178    0.76176    0.54083   1.00
C5       0.77689    0.99181    0.54969   1.00
H2       0.83340    1.02456    0.55032   1.00
H2       0.76278    0.94841    0.56028   1.00
C5       0.74182    1.03211    0.55617   1.00
H2       0.76298    1.05800    0.57090   1.00
C5       0.27292    0.97940    0.42255   1.00
H2       0.22638    0.94158    0.41436   1.00
H2       0.30926    0.96004    0.42161   1.00
C5       0.30297    1.04963    0.41199   1.00
H2       0.33395    1.05229    0.39854   1.00
H2       0.33575    1.09099    0.42278   1.00
O_3      0.27330    0.95847    0.52787   1.00
C4       0.16950    0.86535    0.50200   1.00
C3c      0.19715    0.88036    0.48236   1.00
H1       0.23972    0.87330    0.47865   1.00
C3d      0.11341    0.87398    0.50643   1.00
C3       0.17122    0.90550    0.46733   1.00
O2       0.19531    0.91109    0.44785   1.00
C3       0.08831    0.90023    0.49162   1.00
H1       0.04681    0.90827    0.49593   1.00
C2       0.11616    0.91638    0.47174   1.00
C5       0.24831    0.98307    0.54339   1.00
H2       0.26351    0.97506    0.55878   1.00
H2       0.19153    0.95760    0.54289   1.00
C5       0.27823    1.05915    0.54005   1.00
H2       0.26466    1.06729    0.52446   1.00
H2       0.33489    1.08414    0.54078   1.00
C5       0.25165    1.08971    0.55592   1.00
H2       0.26460    1.08135    0.57153   1.00
H2       0.19532    1.06646    0.55474   1.00
H2       0.27523    1.14559    0.55351   1.00
C5       0.03756    0.79585    0.52874   1.00
C5       0.25055    0.97768    0.44456   1.00
H2       0.05959    0.76188    0.52704   1.00
H2       -0.00532   0.77941    0.51774   1.00
H2       0.29324    0.98838    0.45513   1.00
H2       0.23632    1.01783    0.44711   1.00
H2       0.26171    1.05866    0.40622   1.00
H2       0.00298    0.69135    0.55901   1.00
H2       -0.07125   0.68246    0.54564   1.00
C2       0.25094    0.79613    0.54898   1.00
C3       0.20149    0.74877    0.53550   1.00
O2       0.16670    0.68016    0.54014   1.00
C3       0.27487    0.86636    0.54590   1.00
H1       0.31397    0.90401    0.55564   1.00
C3a      0.17604    0.77213    0.51977   1.00
H1       0.13542    0.73501    0.51030   1.00
C3b      0.24788    0.88927    0.53065   1.00
C4       0.19797    0.84207    0.51746   1.00
O_3      0.08766    0.86487    0.52593   1.00
C5       0.19367    0.64575    0.52905   1.00
H2       0.18969    0.65155    0.51236   1.00
C5       0.15183    0.57023    0.53475   1.00
H2       0.24825    0.66546    0.53298   1.00
H2       0.10316    0.54690    0.52606   1.00
H2       0.13791    0.56746    0.55107   1.00
C5       0.19023    0.53107    0.53088   1.00
H2       0.20841    0.53885    0.51493   1.00
H2       0.15628    0.47547    0.53358   1.00
H2       0.23460    0.54823    0.54140   1.00
C5       0.00990    0.78856    0.55019   1.00
H2       -0.02225   0.81299    0.55083   1.00
H2       0.05377    0.81783    0.56063   1.00
C5       -0.03096   0.71348    0.55692   1.00
H2       -0.05620   0.70963    0.57170   1.00
C5       0.05557    0.14608    1.00476   1.00
H2       0.02193    0.09012    1.00642   1.00
H2       0.05354    0.15731    0.98845   1.00
C5       0.02809    0.18342    1.01804   1.00
H2       -0.01428   0.18575    1.01022   1.00
H2       0.06969    0.23623    1.02135   1.00
O_3      0.40497    0.27194    0.99684   1.00
C4       0.30388    0.13320    0.99793   1.00
C3c      0.24160    0.13141    0.99496   1.00
H1       0.23178    0.14857    0.98071   1.00
C3d      0.31527    0.10970    1.01650   1.00
C3       0.19162    0.10854    1.01029   1.00
O2       0.12887    0.10040    1.00541   1.00
C3       0.26615    0.08812    1.03193   1.00
H1       0.27816    0.07284    1.04617   1.00
C2       0.20320    0.08668    1.02925   1.00
C5       0.45684    0.28868    1.01135   1.00
H2       0.50858    0.31371    1.00436   1.00
H2       0.44904    0.24235    1.01964   1.00
C5       0.45387    0.33799    1.02639   1.00
H2       0.40158    0.31372    1.03296   1.00
H2       0.46236    0.38430    1.01798   1.00
C5       0.50726    0.35704    1.04318   1.00
H2       0.55957    0.38087    1.03672   1.00
H2       0.49742    0.31116    1.05204   1.00
H2       0.50533    0.39426    1.05377   1.00
C5       0.37794    0.05658    1.01365   1.00
C5       0.12717    0.16032    1.01031   1.00
H2       0.37121    0.05146    0.99691   1.00
H2       0.33691    0.00925    1.02091   1.00
H2       0.16635    0.20429    1.00133   1.00
H2       0.13783    0.17409    1.02673   1.00
H2       0.00661    0.15578    1.03264   1.00
H2       0.46808    0.02575    0.99082   1.00
H2       0.41745    -0.03967   1.00936   1.00
C2       0.46090    0.20933    0.95279   1.00
C3       0.40865    0.14033    0.95239   1.00
O2       0.41616    0.09332    0.94104   1.00
C3       0.45791    0.25266    0.96772   1.00
H1       0.49615    0.30612    0.96810   1.00
C3a      0.35622    0.11601    0.96705   1.00
H1       0.31879    0.06224    0.96726   1.00
C3b      0.40694    0.22783    0.98266   1.00
C4       0.35562    0.15900    0.98245   1.00
O_3      0.37768    0.11522    1.02076   1.00
C5       0.37843    0.07883    0.92288   1.00
H2       0.32299    0.05774    0.92601   1.00
C5       0.38843    0.02575    0.91138   1.00
H2       0.39703    0.12555    0.91339   1.00
H2       0.35410    -0.02529   0.91812   1.00
H2       0.44159    0.03719    0.91428   1.00
C5       0.37524    0.02510    0.88841   1.00
H2       0.32399    0.01903    0.88584   1.00
H2       0.37737    -0.01777   0.88086   1.00
H2       0.41485    0.07304    0.88095   1.00
C5       0.44687    0.06433    1.01900   1.00
H2       0.44861    0.05760    1.03568   1.00
H2       0.48714    0.11758    1.01542   1.00
C5       0.46041    0.01337    1.00734   1.00
H2       0.50756    0.01560    1.01314   1.00
C5       0.70783    0.72938    1.07100   1.00
H2       0.74749    0.73111    1.08129   1.00
H2       0.66506    0.67585    1.07138   1.00
C5       0.68400    0.77838    1.07895   1.00
H2       0.64583    0.75403    1.09132   1.00
H2       0.66077    0.79273    1.06639   1.00
O_3      0.74663    0.70091    0.96736   1.00
C4       0.83041    0.69574    0.99803   1.00
C3c      0.79550    0.68800    1.01633   1.00
H1       0.74715    0.64222    1.01897   1.00
C3d      0.89380    0.75535    0.99501   1.00
C3       0.82164    0.73920    1.03131   1.00
O2       0.78892    0.72454    1.04977   1.00
C3       0.91934    0.80699    1.00973   1.00
H1       0.96697    0.85283    1.00643   1.00
C2       0.88434    0.80032    1.02823   1.00
C5       0.78414    0.74907    0.95213   1.00
H2       0.77271    0.72593    0.93668   1.00
H2       0.84012    0.77289    0.95481   1.00
C5       0.76445    0.80409    0.95280   1.00
H2       0.77408    0.82590    0.96839   1.00
H2       0.70861    0.77984    0.94991   1.00
C5       0.80488    0.86007    0.93712   1.00
H2       0.79588    0.83856    0.92152   1.00
H2       0.86050    0.88591    0.94040   1.00
H2       0.78872    0.89903    0.93753   1.00
C5       0.97001    0.73852    0.97692   1.00
C5       0.74045    0.74654    1.04991   1.00
H2       0.93963    0.68222    0.97879   1.00
H2       1.00847    0.76009    0.98937   1.00
H2       0.70099    0.71898    1.03801   1.00
H2       0.76395    0.80240    1.04683   1.00
H2       0.72744    0.82560    1.08558   1.00
H2       1.00056    0.65570    0.95043   1.00
H2       1.07296    0.71378    0.96592   1.00
C2       0.74994    0.54536    0.95096   1.00
C3       0.78884    0.53974    0.96678   1.00
O2       0.81562    0.49708    0.96479   1.00
C3       0.73573    0.59949    0.95167   1.00
H1       0.70462    0.60419    0.94007   1.00
C3a      0.81387    0.58864    0.98249   1.00
H1       0.84680    0.58586    0.99386   1.00
C3b      0.76251    0.64927    0.96696   1.00
C4       0.80205    0.64421    0.98251   1.00
O_3      0.92768    0.76773    0.97666   1.00
C5       0.77604    0.43635    0.97582   1.00
H2       0.77453    0.44706    0.99229   1.00
C5       0.80954    0.39255    0.97314   1.00
H2       0.72276    0.40812    0.96995   1.00
H2       0.85388    0.41180    0.98364   1.00
H2       0.83060    0.40126    0.95746   1.00
C5       0.75982    0.31603    0.97682   1.00
H2       0.73524    0.30885    0.99190   1.00
H2       0.78724    0.28670    0.97642   1.00
H2       0.71970    0.29391    0.96478   1.00
C5       1.00707    0.75448    0.95665   1.00
H2       1.04614    0.80970    0.95633   1.00
H2       0.96964    0.74584    0.94442   1.00
C5       1.04002    0.71021    0.95291   1.00
H2       1.07238    0.72804    0.93909   1.00
C5       0.97832    0.27234    1.07759   1.00
H2       0.94053    0.22565    1.08572   1.00
H2       0.95875    0.30851    1.07854   1.00
C5       1.04845    0.30251    1.08822   1.00
H2       1.05084    0.33330    1.10169   1.00
H2       1.08988    0.33551    1.07748   1.00
O_3      0.95850    0.27375    0.97225   1.00
C4       0.86535    0.16950    0.99800   1.00
C3c      0.88006    0.19694    1.01767   1.00
H1       0.87276    0.23935    1.02139   1.00
C3d      0.87429    0.11361    0.99354   1.00
C3       0.90519    0.17102    1.03270   1.00
O2       0.91048    0.19488    1.05220   1.00
C3       0.90054    0.08853    1.00836   1.00
H1       0.90883    0.04720    1.00402   1.00
C2       0.91638    0.11617    1.02826   1.00
C5       0.98344    0.24909    0.95673   1.00
H2       0.97551    0.26438    0.94135   1.00
H2       0.95815    0.19232    0.95718   1.00
C5       1.05952    0.27924    0.96014   1.00
H2       1.06756    0.26557    0.97573   1.00
H2       1.08432    0.33588    0.95947   1.00
C5       1.09043    0.25301    0.94428   1.00
H2       1.08217    0.26607    0.92867   1.00
H2       1.06737    0.19670    0.94541   1.00
H2       1.14631    0.27676    0.94674   1.00
C5       0.79657    0.03783    0.97114   1.00
C5       0.97694    0.25024    1.05556   1.00
H2       0.76242    0.05965    0.97282   1.00
H2       0.78016    -0.00515   0.98209   1.00
H2       0.98759    0.29301    1.04502   1.00
H2       1.01727    0.23625    1.05303   1.00
H2       1.05762    0.26132    1.09396   1.00
H2       0.69233    0.00319    0.94077   1.00
H2       0.68359    -0.07105   0.95409   1.00
C2       0.79615    0.25096    0.95102   1.00
C3       0.74875    0.20127    0.96444   1.00
O2       0.68020    0.16631    0.95973   1.00
C3       0.86639    0.27511    0.95416   1.00
H1       0.90406    0.31440    0.94448   1.00
C3a      0.77209    0.17581    0.98017   1.00
H1       0.73497    0.13502    0.98959   1.00
C3b      0.88930    0.24812    0.96941   1.00
C4       0.84207    0.19797    0.98254   1.00
O_3      0.86549    0.08809    0.97402   1.00
C5       0.64547    0.19295    0.97082   1.00
H2       0.65112    0.18883    0.98750   1.00
C5       0.57003    0.15094    0.96504   1.00
H2       0.66502    0.24754    0.96693   1.00
H2       0.54676    0.10218    0.97369   1.00
H2       0.56750    0.13721    0.94871   1.00
C5       0.53058    0.18904    0.96890   1.00
H2       0.53812    0.20705    0.98487   1.00
H2       0.47504    0.15495    0.96615   1.00
H2       0.54770    0.23350    0.95843   1.00
C5       0.78962    0.01042    0.94966   1.00
H2       0.81425    -0.02154   0.94902   1.00
H2       0.81887    0.05444    0.93927   1.00
C5       0.71463    -0.03060   0.94286   1.00
H2       0.71104    -0.05564   0.92805   1.00
C5       0.63832    1.03633    0.91175   1.00
H2       0.68740    1.08407    0.90911   1.00
H2       0.64873    0.99399    0.90898   1.00
C5       0.61522    1.03461    0.93394   1.00
H2       0.64206    1.01714    0.94437   1.00
H2       0.55924    0.99950    0.93527   1.00
O_3      0.40005    0.91745    0.83350   1.00
C4       0.53331    1.02976    0.83117   1.00
C3c      0.56746    1.02571    0.84843   1.00
H1       0.57590    0.98304    0.85020   1.00
C3d      0.52370    1.08629    0.82901   1.00
C3       0.59030    1.07574    0.86374   1.00
O2       0.63048    1.07277    0.87891   1.00
C3       0.54523    1.13551    0.84441   1.00
H1       0.53458    1.17667    0.84243   1.00
C2       0.57917    1.13181    0.86207   1.00
C5       0.35014    0.93360    0.82726   1.00
H2       0.31675    0.89899    0.81504   1.00
H2       0.37417    0.98712    0.82160   1.00
C5       0.30607    0.92582    0.84557   1.00
H2       0.33968    0.95896    0.85799   1.00
H2       0.28184    0.87205    0.85098   1.00
C5       0.25172    0.94484    0.84028   1.00
H2       0.21827    0.91226    0.82779   1.00
H2       0.27589    0.99920    0.83555   1.00
H2       0.21907    0.93739    0.85373   1.00
C5       0.52909    1.12150    0.79630   1.00
C5       0.58942    1.03581    0.89561   1.00
H2       0.55228    1.09116    0.79087   1.00
H2       0.57080    1.17405    0.80005   1.00
H2       0.55240    0.98238    0.89099   1.00
H2       0.55932    1.05865    0.90181   1.00
H2       0.62799    1.08658    0.93924   1.00
H2       0.52752    1.09779    0.75321   1.00
H2       0.57371    1.18786    0.75971   1.00
C2       0.45589    0.87541    0.78521   1.00
C3       0.52405    0.92937    0.78430   1.00
O2       0.56082    0.94286    0.76653   1.00
C3       0.41562    0.87212    0.80205   1.00
H1       0.36381    0.83050    0.80347   1.00
C3a      0.54965    0.97918    0.79975   1.00
H1       0.60067    1.02225    0.79824   1.00
C3b      0.44054    0.92291    0.81705   1.00
C4       0.50797    0.97708    0.81597   1.00
O_3      0.48591    1.09006    0.81308   1.00
C5       0.60618    0.91729    0.76768   1.00
H2       0.64279    0.94090    0.78053   1.00
C5       0.64563    0.93522    0.74766   1.00
H2       0.57790    0.86087    0.76973   1.00
H2       0.68692    0.98957    0.74830   1.00
H2       0.61003    0.93163    0.73543   1.00
C5       0.67544    0.88863    0.74293   1.00
H2       0.70648    0.88867    0.75599   1.00
H2       0.70844    0.90675    0.72920   1.00
H2       0.63424    0.83521    0.73969   1.00
C5       0.48569    1.12567    0.77935   1.00
H2       0.47227    1.16526    0.78342   1.00
H2       0.43700    1.07606    0.77862   1.00
C5       0.52229    1.14158    0.75870   1.00
H2       0.49235    1.15126    0.74717   1.00
C5       -0.01952   0.57143    0.91631   1.00
H2       -0.06189   0.58264    0.91533   1.00
H2       0.02820    0.62147    0.91507   1.00
C5       -0.02256   0.53771    0.93700   1.00
H2       0.00099    0.57689    0.94914   1.00
H2       0.00494    0.50855    0.93604   1.00
O_3      0.06680    0.46020    0.82871   1.00
C4       -0.02969   0.50370    0.83119   1.00
C3c      -0.01946   0.53549    0.85018   1.00
H1       0.02813    0.58157    0.85333   1.00
C3d      -0.09245   0.44425    0.82729   1.00
C3       -0.06966   0.50809    0.86544   1.00
O2       -0.05942   0.54636    0.88267   1.00
C3       -0.14202   0.41612    0.84259   1.00
H1       -0.18838   0.36914    0.83915   1.00
C2       -0.13222   0.44720    0.86195   1.00
C5       0.04029    0.39558    0.81948   1.00
H2       0.07179    0.39655    0.80635   1.00
H2       -0.01290   0.37637    0.81401   1.00
C5       0.04001    0.34674    0.83532   1.00
H2       0.01012    0.34722    0.84868   1.00
H2       0.09342    0.36607    0.84053   1.00
C5       0.00955    0.27437    0.82672   1.00
H2       0.03886    0.27359    0.81329   1.00
H2       -0.04454   0.25411    0.82217   1.00
H2       0.01116    0.23973    0.83838   1.00
C5       -0.12857   0.43432    0.79452   1.00
C5       -0.02758   0.52742    0.89773   1.00
H2       -0.09136   0.48862    0.79110   1.00
H2       -0.17768   0.43034    0.79934   1.00
H2       0.02337    0.53760    0.89232   1.00
H2       -0.05799   0.47205    0.90171   1.00
H2       -0.07645   0.50263    0.94178   1.00
H2       -0.10208   0.47429    0.75242   1.00
H2       -0.19094   0.44044    0.75937   1.00
C2       0.12386    0.58018    0.78499   1.00
C3       0.07827    0.60541    0.78662   1.00
O2       0.07101    0.64113    0.77079   1.00
C3       0.11950    0.53211    0.79951   1.00
H1       0.15479    0.51314    0.79899   1.00
C3a      0.02881    0.58108    0.80217   1.00
H1       -0.00819   0.59796    0.80251   1.00
C3b      0.06886    0.50640    0.81455   1.00
C4       0.02291    0.53073    0.81596   1.00
O_3      -0.10308   0.40818    0.80943   1.00
C5       0.10699    0.71169    0.77496   1.00
H2       0.08794    0.72364    0.78911   1.00
C5       0.09550    0.74741    0.75694   1.00
H2       0.16261    0.73067    0.77668   1.00
H2       0.04446    0.74287    0.75863   1.00
H2       0.09311    0.71845    0.74301   1.00
C5       0.15146    0.82287    0.75492   1.00
H2       0.15682    0.84973    0.76950   1.00
H2       0.13839    0.84853    0.74277   1.00
H2       0.20159    0.82793    0.75065   1.00
C5       -0.14065   0.39241    0.77533   1.00
H2       -0.18599   0.34098    0.77775   1.00
H2       -0.09609   0.38489    0.77305   1.00
C5       -0.15048   0.42718    0.75659   1.00
H2       -0.16616   0.39214    0.74336   1.00
C5       0.42762    0.40772    0.91621   1.00
H2       0.41667    0.35424    0.91518   1.00
H2       0.37747    0.40516    0.91494   1.00
C5       0.46100    0.43822    0.93695   1.00
H2       0.42165    0.42227    0.94905   1.00
H2       0.48995    0.49490    0.93606   1.00
O_3      0.53922    0.60648    0.82885   1.00
C4       0.49630    0.46660    0.83119   1.00
C3c      0.46431    0.44469    0.85014   1.00
H1       0.41806    0.44592    0.85325   1.00
C3d      0.55598    0.46367    0.82733   1.00
C3       0.49170    0.42188    0.86540   1.00
O2       0.45326    0.39350    0.88258   1.00
C3       0.58409    0.44221    0.84263   1.00
H1       0.63123    0.44313    0.83922   1.00
C2       0.55280    0.42058    0.86196   1.00
C5       0.60393    0.64494    0.81970   1.00
H2       0.60297    0.67558    0.80659   1.00
H2       0.62343    0.61124    0.81422   1.00
C5       0.65245    0.69344    0.83562   1.00
H2       0.65195    0.66296    0.84895   1.00
H2       0.63282    0.72725    0.84083   1.00
C5       0.72489    0.73571    0.82710   1.00
H2       0.72568    0.76591    0.81370   1.00
H2       0.74544    0.70214    0.82254   1.00
H2       0.75928    0.77190    0.83881   1.00
C5       0.56648    0.43802    0.79455   1.00
C5       0.47179    0.44405    0.89770   1.00
H2       0.51217    0.42074    0.79107   1.00
H2       0.57064    0.39296    0.79933   1.00
H2       0.46144    0.48472    0.89231   1.00
H2       0.52712    0.46918    0.90174   1.00
H2       0.49621    0.41959    0.94174   1.00
H2       0.52701    0.42492    0.75240   1.00
H2       0.56115    0.37015    0.75934   1.00
C2       0.41981    0.54368    0.78500   1.00
C3       0.39487    0.47290    0.78655   1.00
O2       0.35948    0.43006    0.77066   1.00
C3       0.46760    0.58733    0.79958   1.00
H1       0.48634    0.64156    0.79913   1.00
C3a      0.41919    0.44776    0.80210   1.00
H1       0.40254    0.39392    0.80238   1.00
C3b      0.49332    0.56241    0.81463   1.00
C4       0.46927    0.49216    0.81596   1.00
O_3      0.59223    0.48945    0.80952   1.00
C5       0.28886    0.39515    0.77475   1.00
H2       0.27686    0.36398    0.78887   1.00
C5       0.25352    0.34811    0.75667   1.00
H2       0.26962    0.43157    0.77649   1.00
H2       0.25829    0.30173    0.75832   1.00
H2       0.28260    0.37494    0.74279   1.00
C5       0.17799    0.32830    0.75458   1.00
H2       0.15100    0.30653    0.76912   1.00
H2       0.15262    0.28969    0.74237   1.00
H2       0.17275    0.37328    0.75034   1.00
C5       0.60859    0.46824    0.77541   1.00
H2       0.66009    0.47455    0.77788   1.00
H2       0.61589    0.52025    0.77318   1.00
C5       0.57419    0.42383    0.75662   1.00
H2       0.60939    0.44349    0.74343   1.00
C5       0.64985    0.40100    0.33803   1.00
H2       0.66697    0.36586    0.33234   1.00
H2       0.65386    0.40069    0.35482   1.00
C5       0.69725    0.47353    0.32961   1.00
H2       0.74491    0.50044    0.33873   1.00
H2       0.67069    0.50368    0.32997   1.00
O_3      0.30050    0.27542    0.34596   1.00
C4       0.36253    0.19868    0.33533   1.00
C3c      0.43195    0.23987    0.34005   1.00
H1       0.44737    0.25357    0.35566   1.00
C3d      0.34360    0.18063    0.31493   1.00
C3       0.48230    0.26478    0.32481   1.00
O2       0.54954    0.29772    0.33079   1.00
C3       0.39349    0.20641    0.29968   1.00
H1       0.37631    0.19316    0.28418   1.00
C2       0.46385    0.24874    0.30417   1.00
C5       0.25036    0.26821    0.33187   1.00
H2       0.20014    0.25157    0.33924   1.00
H2       0.24290    0.23036    0.31986   1.00
C5       0.27480    0.33736    0.32208   1.00
H2       0.32587    0.35486    0.31521   1.00
H2       0.28146    0.37457    0.33418   1.00
C5       0.22417    0.33353    0.30595   1.00
H2       0.17294    0.31563    0.31268   1.00
H2       0.21928    0.29818    0.29350   1.00
H2       0.24215    0.38485    0.29929   1.00
C5       0.25197    0.07400    0.31070   1.00
C5       0.57499    0.36881    0.33168   1.00
H2       0.25503    0.05887    0.32655   1.00
H2       0.28163    0.05858    0.30067   1.00
H2       0.54590    0.38044    0.34312   1.00
H2       0.57072    0.39025    0.31682   1.00
H2       0.71338    0.47167    0.31371   1.00
H2       0.13456    -0.04566   0.32688   1.00
H2       0.16999    -0.06409   0.30463   1.00
C2       0.20645    0.12773    0.38071   1.00
C3       0.23939    0.09022    0.37639   1.00
O2       0.21125    0.02342    0.38271   1.00
C3       0.22863    0.19027    0.37046   1.00
H1       0.20566    0.22105    0.37381   1.00
C3a      0.29185    0.11474    0.36174   1.00
H1       0.31388    0.08353    0.35777   1.00
C3b      0.27930    0.21342    0.35544   1.00
C4       0.31127    0.17556    0.35094   1.00
O_3      0.27565    0.14453    0.30931   1.00
C5       0.24565    0.01957    0.40005   1.00
H2       0.30095    0.03988    0.39689   1.00
C5       0.21236    -0.05583   0.40587   1.00
H2       0.24083    0.04886    0.41291   1.00
H2       0.23293    -0.08069   0.39577   1.00
H2       0.15692    -0.07984   0.40242   1.00
C5       0.22346    -0.06671   0.42833   1.00
H2       0.27882    -0.03794   0.43190   1.00
H2       0.20358    -0.12174   0.43155   1.00
H2       0.19562    -0.04975   0.43866   1.00
C5       0.17765    0.03650    0.30404   1.00
H2       0.17574    0.04226    0.28732   1.00
H2       0.15168    0.06214    0.31111   1.00
C5       0.14113    -0.03932   0.31009   1.00
H2       0.08947    -0.06647   0.30319   1.00
C5       0.59640    0.36905    0.33412   1.00
H2       0.57447    0.37882    0.32033   1.00
H2       0.57132    0.37861    0.34719   1.00
C5       0.58005    0.29401    0.33414   1.00
H2       0.52737    0.25949    0.33977   1.00
H2       0.61688    0.28848    0.34400   1.00
O_3      0.91257    0.62758    0.36745   1.00
C4       0.83669    0.63786    0.33521   1.00
C3c      0.77117    0.58052    0.33681   1.00
H1       0.74002    0.57477    0.34991   1.00
C3d      0.87606    0.64486    0.31788   1.00
C3       0.74519    0.52942    0.32179   1.00
O2       0.67781    0.47921    0.32317   1.00
C3       0.85086    0.59344    0.30309   1.00
H1       0.88385    0.59985    0.29042   1.00
C2       0.78500    0.53475    0.30457   1.00
C5       0.98020    0.64756    0.36185   1.00
H2       1.01839    0.68805    0.37200   1.00
H2       0.99097    0.66700    0.34595   1.00
C5       0.98851    0.58517    0.36344   1.00
H2       0.94909    0.54404    0.35374   1.00
H2       0.97827    0.56658    0.37941   1.00
C5       1.06023    0.60187    0.35690   1.00
H2       1.09987    0.64324    0.36643   1.00
H2       1.06963    0.61817    0.34073   1.00
H2       1.06582    0.55606    0.35858   1.00
C5       0.94361    0.75486    0.30749   1.00
C5       0.67245    0.42232    0.33369   1.00
H2       0.91603    0.77359    0.31711   1.00
H2       0.92015    0.74301    0.29207   1.00
H2       0.69238    0.43723    0.34946   1.00
H2       0.70205    0.40088    0.32625   1.00
H2       0.58227    0.27639    0.31846   1.00
H2       1.00878    0.89971    0.31502   1.00
H2       0.99346    0.87862    0.28822   1.00
C2       0.92148    0.79105    0.38143   1.00
C3       0.88056    0.79536    0.36601   1.00
O2       0.88116    0.85577    0.36257   1.00
C3       0.93063    0.73364    0.38172   1.00
H1       0.96020    0.72794    0.39363   1.00
C3a      0.85152    0.74386    0.35109   1.00
H1       0.82358    0.74988    0.33874   1.00
C3b      0.90350    0.68364    0.36650   1.00
C4       0.86371    0.68854    0.35100   1.00
O_3      0.94275    0.69766    0.31631   1.00
C5       0.82248    0.85281    0.37101   1.00
H2       0.77495    0.81031    0.36426   1.00
C5       0.82639    0.92085    0.36628   1.00
H2       0.82083    0.84545    0.38776   1.00
H2       0.80956    0.91944    0.35033   1.00
H2       0.88111    0.96127    0.36695   1.00
C5       0.78355    0.93739    0.38094   1.00
H2       0.73026    0.89410    0.38128   1.00
H2       0.78305    0.98416    0.37601   1.00
H2       0.80523    0.94756    0.39662   1.00
C5       1.01781    0.81100    0.30572   1.00
H2       1.04233    0.79700    0.29344   1.00
H2       1.04430    0.81256    0.32012   1.00
C5       1.02468    0.88108    0.30157   1.00
H2       1.07873    0.91926    0.29827   1.00
C5       0.76053    0.39634    0.33546   1.00
H2       0.79354    0.42087    0.32206   1.00
H2       0.79315    0.42087    0.34894   1.00
C5       0.69971    0.40948    0.33513   1.00
H2       0.71504    0.46102    0.34124   1.00
H2       0.65697    0.37038    0.34442   1.00
O_3      0.71287    0.08144    0.36627   1.00
C4       0.80121    0.16336    0.33522   1.00
C3c      0.80620    0.22742    0.33730   1.00
H1       0.82909    0.25741    0.35079   1.00
C3d      0.77210    0.12551    0.31740   1.00
C3       0.78107    0.25334    0.32227   1.00
O2       0.79519    0.31966    0.32421   1.00
C3       0.74585    0.15060    0.30258   1.00
H1       0.72181    0.11869    0.28950   1.00
C2       0.74981    0.21495    0.30454   1.00
C5       0.66809    0.01391    0.35988   1.00
H2       0.67106    -0.02441   0.36978   1.00
H2       0.67940    0.00573    0.34399   1.00
C5       0.59599    0.00225    0.36086   1.00
H2       0.59351    0.04176    0.35142   1.00
H2       0.58503    0.00993    0.37683   1.00
C5       0.54400    -0.06949   0.35344   1.00
H2       0.54653    -0.10918   0.36272   1.00
H2       0.55346    -0.07639   0.33728   1.00
H2       0.49149    -0.07759   0.35469   1.00
C5       0.82005    0.06294    0.30691   1.00
C5       0.74097    0.32118    0.33437   1.00
H2       0.86491    0.09087    0.31705   1.00
H2       0.83265    0.08820    0.29174   1.00
H2       0.73489    0.29962    0.34995   1.00
H2       0.69109    0.29078    0.32635   1.00
H2       0.68141    0.40824    0.31930   1.00
H2       0.90379    0.00230    0.31462   1.00
H2       0.90039    0.02017    0.28790   1.00
C2       0.86968    0.07844    0.38138   1.00
C3       0.91582    0.12232    0.36658   1.00
O2       0.97742    0.12499    0.36360   1.00
C3       0.80202    0.06631    0.38109   1.00
H1       0.76594    0.03438    0.39253   1.00
C3a      0.89325    0.15133    0.35169   1.00
H1       0.92811    0.18167    0.33979   1.00
C3b      0.77915    0.09348    0.36589   1.00
C4       0.82480    0.13625    0.35100   1.00
O_3      0.76132    0.06003    0.31528   1.00
C5       1.03055    0.18383    0.37284   1.00
H2       1.03422    0.23121    0.36644   1.00
C5       1.09690    0.18364    0.36858   1.00
H2       1.02260    0.18316    0.38954   1.00
H2       1.11378    0.20269    0.35288   1.00
H2       1.08484    0.12954    0.36879   1.00
C5       1.15378    0.22647    0.38396   1.00
H2       1.16138    0.27885    0.38472   1.00
H2       1.20270    0.22980    0.37940   1.00
H2       1.14116    0.20291    0.39941   1.00
C5       0.80539    -0.01004   0.30452   1.00
H2       0.76866    -0.03430   0.29179   1.00
H2       0.77943    -0.03877   0.31854   1.00
C5       0.87087    -0.01323   0.30081   1.00
H2       0.85765    -0.06628   0.29705   1.00
C5       0.84597    0.65636    0.74863   1.00
H2       0.86603    0.62054    0.74840   1.00
H2       0.89142    0.70833    0.74908   1.00
C5       0.80400    0.64685    0.72915   1.00
H2       0.83810    0.67483    0.71618   1.00
H2       0.76795    0.66610    0.73164   1.00
O_3      0.73744    0.71544    0.84131   1.00
C4       0.80098    0.63706    0.83545   1.00
C3c      0.82749    0.65157    0.81567   1.00
H1       0.86737    0.70258    0.81189   1.00
C3d      0.74972    0.57004    0.84014   1.00
C3       0.80255    0.60118    0.80044   1.00
O2       0.83655    0.61694    0.78219   1.00
C3       0.72387    0.52007    0.82492   1.00
H1       0.68289    0.47001    0.82905   1.00
C2       0.74958    0.53406    0.80478   1.00
C5       0.67565    0.68004    0.85219   1.00
H2       0.67495    0.70876    0.86583   1.00
H2       0.66636    0.62905    0.85724   1.00
C5       0.61840    0.67035    0.83809   1.00
H2       0.62029    0.64333    0.82420   1.00
H2       0.62786    0.72157    0.83330   1.00
C5       0.54882    0.62996    0.84854   1.00
H2       0.54674    0.65641    0.86250   1.00
H2       0.53828    0.57795    0.85270   1.00
H2       0.50776    0.62469    0.83816   1.00
C5       0.75562    0.53677    0.87238   1.00
C5       0.80581    0.64153    0.76847   1.00
H2       0.80822    0.58018    0.87466   1.00
H2       0.75882    0.49197    0.86677   1.00
H2       0.80913    0.68914    0.77450   1.00
H2       0.75065    0.60399    0.76582   1.00
H2       0.77466    0.59203    0.72454   1.00
H2       0.80657    0.56900    0.91342   1.00
H2       0.78425    0.48304    0.90592   1.00
C2       0.86927    0.78983    0.88179   1.00
C3       0.90417    0.75365    0.87842   1.00
O2       0.94869    0.75418    0.89280   1.00
C3       0.81399    0.77666    0.86892   1.00
H1       0.78735    0.80475    0.87077   1.00
C3a      0.88230    0.70448    0.86281   1.00
H1       0.90707    0.67448    0.86117   1.00
C3b      0.79100    0.72620    0.85384   1.00
C4       0.82509    0.68953    0.85071   1.00
O_3      0.71836    0.55435    0.85895   1.00
C5       1.01668    0.79929    0.88693   1.00
H2       1.02868    0.78406    0.87207   1.00
C5       1.06264    0.79608    0.90340   1.00
H2       1.02643    0.85251    0.88566   1.00
H2       1.06654    0.74953    0.90089   1.00
H2       1.03620    0.78897    0.91821   1.00
C5       1.13414    0.86015    0.90392   1.00
H2       1.15757    0.86950    0.88860   1.00
H2       1.16779    0.85351    0.91488   1.00
H2       1.13175    0.90604    0.90898   1.00
C5       0.71864    0.51875    0.89268   1.00
H2       0.67090    0.46862    0.89115   1.00
H2       0.70314    0.55729    0.89608   1.00
C5       0.76349    0.51688    0.90994   1.00
H2       0.73273    0.49673    0.92400   1.00
C5       0.59348    0.43404    0.82357   1.00
H2       0.63170    0.41698    0.82329   1.00
H2       0.59356    0.45129    0.83935   1.00
C5       0.61504    0.49382    0.80852   1.00
H2       0.65411    0.54282    0.81542   1.00
H2       0.56990    0.49815    0.80411   1.00
O_3      0.25167    0.18552    0.83343   1.00
C4       0.36286    0.16272    0.83542   1.00
C3c      0.42118    0.22745    0.83729   1.00
H1       0.42788    0.25782    0.85066   1.00
C3d      0.35559    0.12357    0.81801   1.00
C3       0.47107    0.25441    0.82193   1.00
O2       0.53053    0.31428    0.82591   1.00
C3       0.40453    0.15080    0.80251   1.00
H1       0.39556    0.11988    0.78912   1.00
C2       0.46344    0.21647    0.80406   1.00
C5       0.20161    0.14232    0.81936   1.00
H2       0.15005    0.11312    0.82638   1.00
H2       0.21472    0.10511    0.81263   1.00
C5       0.19887    0.18692    0.80259   1.00
H2       0.25084    0.21752    0.79595   1.00
H2       0.18512    0.22342    0.80946   1.00
C5       0.14718    0.14361    0.78620   1.00
H2       0.09525    0.11255    0.79275   1.00
H2       0.16216    0.10881    0.77884   1.00
H2       0.14480    0.17717    0.77430   1.00
C5       0.30336    0.00910    0.82389   1.00
C5       0.52503    0.37032    0.81886   1.00
H2       0.30979    0.01624    0.84060   1.00
H2       0.34761    0.00624    0.81760   1.00
H2       0.48288    0.37251    0.82695   1.00
H2       0.51389    0.36718    0.80224   1.00
H2       0.63886    0.48657    0.79458   1.00
H2       0.22222    -0.10783   0.84937   1.00
H2       0.27794    -0.12063   0.83233   1.00
C2       0.20570    0.08116    0.88052   1.00
C3       0.26282    0.07218    0.88240   1.00
O2       0.26115    0.02387    0.89551   1.00
C3       0.20370    0.12027    0.86407   1.00
H1       0.16154    0.12957    0.86249   1.00
C3a      0.31515    0.10054    0.86772   1.00
H1       0.35661    0.08993    0.86874   1.00
C3b      0.25474    0.14655    0.84914   1.00
C4       0.31097    0.13669    0.85086   1.00
O_3      0.29674    0.06180    0.81473   1.00
C5       0.29762    0.05533    0.91339   1.00
H2       0.35204    0.09318    0.91000   1.00
C5       0.29434    -0.00120   0.92691   1.00
H2       0.27433    0.08187    0.92151   1.00
H2       0.33276    -0.01442   0.92138   1.00
H2       0.24338    -0.04735   0.92460   1.00
C5       0.30608    0.01868    0.94953   1.00
H2       0.35462    0.06771    0.95135   1.00
H2       0.30905    -0.02122   0.95861   1.00
H2       0.26309    0.02366    0.95597   1.00
C5       0.23819    -0.05777   0.81958   1.00
H2       0.23786    -0.07064   0.80326   1.00
H2       0.19404    -0.04967   0.82198   1.00
C5       0.23135    -0.11601   0.83324   1.00
H2       0.18720    -0.16521   0.82827   1.00
C5       0.57613    0.18717    0.82856   1.00
H2       0.59844    0.24313    0.82690   1.00
H2       0.56286    0.17593    0.84486   1.00
C5       0.51132    0.14983    0.81527   1.00
H2       0.46661    0.14748    0.82309   1.00
H2       0.50012    0.09702    0.81196   1.00
O_3      0.79974    0.06140    0.83648   1.00
C4       0.83735    0.20013    0.83540   1.00
C3c      0.77685    0.20190    0.83837   1.00
H1       0.74986    0.18473    0.85261   1.00
C3d      0.87226    0.22365    0.81684   1.00
C3       0.74974    0.22477    0.82304   1.00
O2       0.69512    0.23289    0.82792   1.00
C3       0.84471    0.24523    0.80140   1.00
H1       0.87201    0.26053    0.78717   1.00
C2       0.78319    0.24665    0.80408   1.00
C5       0.83488    0.04468    0.82197   1.00
H2       0.86160    0.01966    0.82896   1.00
H2       0.87342    0.09103    0.81369   1.00
C5       0.78263    -0.00462   0.80693   1.00
H2       0.75460    0.01964    0.80036   1.00
H2       0.74480    -0.05095   0.81533   1.00
C5       0.81699    -0.02364   0.79013   1.00
H2       0.84548    -0.04747   0.79660   1.00
H2       0.85303    0.02225    0.78128   1.00
H2       0.77786    -0.06086   0.77954   1.00
C5       0.98805    0.27680    0.81969   1.00
C5       0.63351    0.17296    0.82301   1.00
H2       0.98642    0.28191    0.83643   1.00
H2       0.99433    0.32413    0.81243   1.00
H2       0.62872    0.12899    0.83198   1.00
H2       0.63041    0.15921    0.80659   1.00
H2       0.51747    0.17747    0.80068   1.00
H2       1.10900    0.30764    0.84252   1.00
H2       1.12378    0.37307    0.82399   1.00
C2       0.91824    0.12400    0.88054   1.00
C3       0.93496    0.19299    0.88094   1.00
O2       0.98947    0.24000    0.89230   1.00
C3       0.87194    0.08068    0.86561   1.00
H1       0.85673    0.02722    0.86523   1.00
C3a      0.90687    0.21732    0.86629   1.00
H1       0.92319    0.27108    0.86608   1.00
C3b      0.84580    0.10550    0.85066   1.00
C4       0.86329    0.17433    0.85088   1.00
O_3      0.92916    0.21816    0.81258   1.00
C5       0.96621    0.25447    0.91046   1.00
H2       0.93186    0.27555    0.90732   1.00
C5       1.02928    0.30755    0.92197   1.00
H2       0.93810    0.20774    0.91995   1.00
H2       1.04599    0.35860    0.91522   1.00
H2       1.07102    0.29613    0.91907   1.00
C5       1.01672    0.30818    0.94493   1.00
H2       0.97153    0.31423    0.94750   1.00
H2       1.06171    0.35105    0.95249   1.00
H2       1.00840    0.26024    0.95239   1.00
C5       1.04924    0.26907    0.81435   1.00
H2       1.05772    0.27582    0.79766   1.00
H2       1.03628    0.21583    0.81792   1.00
C5       1.11373    0.32004    0.82601   1.00
H2       1.15865    0.31782    0.82021   1.00
C5       -0.03429   0.36645    0.41231   1.00
H2       -0.04511   0.40384    0.41987   1.00
H2       0.02178    0.38822    0.41334   1.00
C5       -0.07191   0.29741    0.42363   1.00
H2       -0.04276   0.29795    0.43729   1.00
H2       -0.07864   0.25538    0.41340   1.00
O_3      -0.01364   0.37464    0.30692   1.00
C4       -0.02922   0.46796    0.33132   1.00
C3c      -0.01550   0.45647    0.35125   1.00
H1       0.03498    0.46631    0.35518   1.00
C3d      -0.09507   0.45575    0.32658   1.00
C3       -0.06651   0.43133    0.36629   1.00
O2       -0.04726   0.42927    0.38596   1.00
C3       -0.14631   0.42948    0.34143   1.00
H1       -0.19666   0.41861    0.33690   1.00
C2       -0.13351   0.41685    0.36160   1.00
C5       -0.06322   0.34624    0.29144   1.00
H2       -0.03986   0.35328    0.27611   1.00
H2       -0.09655   0.36951    0.29136   1.00
C5       -0.10668   0.27029    0.29559   1.00
H2       -0.12848   0.26324    0.31114   1.00
H2       -0.07299   0.24749    0.29545   1.00
C5       -0.16368   0.23568    0.27980   1.00
H2       -0.14229   0.24293    0.26423   1.00
H2       -0.19872   0.25678    0.28041   1.00
H2       -0.19396   0.17997    0.28282   1.00
C5       -0.09667   0.52908    0.30316   1.00
C5       -0.05556   0.36431    0.39016   1.00
H2       -0.04102   0.56517    0.30473   1.00
H2       -0.12456   0.54512    0.31373   1.00
H2       -0.02226   0.35419    0.37997   1.00
H2       -0.10924   0.32217    0.38783   1.00
H2       -0.12296   0.28681    0.42918   1.00
H2       -0.03033   0.63049    0.27185   1.00
H2       -0.09768   0.63752    0.28463   1.00
C2       0.12156    0.53702    0.28437   1.00
C3       0.11706    0.58470    0.29713   1.00
O2       0.14825    0.65258    0.29171   1.00
C3       0.07765    0.46673    0.28817   1.00
H1       0.08103    0.42895    0.27902   1.00
C3a      0.06827    0.56149    0.31286   1.00
H1       0.06282    0.59861    0.32175   1.00
C3b      0.02772    0.44383    0.30341   1.00
C4       0.02260    0.49129    0.31588   1.00
O_3      -0.11259   0.46131    0.30685   1.00
C5       0.20939    0.69056    0.30269   1.00
H2       0.19969    0.68653    0.31938   1.00
C5       0.24010    0.76503    0.29611   1.00
H2       0.24610    0.67266    0.29929   1.00
H2       0.21300    0.78756    0.30428   1.00
H2       0.22852    0.76511    0.27969   1.00
C5       0.31757    0.80754    0.29991   1.00
H2       0.32863    0.80251    0.31604   1.00
H2       0.33696    0.86240    0.29655   1.00
H2       0.34629    0.79090    0.28985   1.00
C5       -0.11793   0.53244    0.28148   1.00
H2       -0.17465   0.50573    0.28083   1.00
H2       -0.10151   0.50339    0.27159   1.00
C5       -0.08665   0.60638    0.27388   1.00
H2       -0.10876   0.60719    0.25891   1.00
C5       0.39339    1.04011    0.41070   1.00
H2       0.43984    1.04873    0.41891   1.00
H2       0.35694    0.98444    0.41163   1.00
C5       0.36342    1.08043    0.42122   1.00
H2       0.33231    1.05216    0.43465   1.00
H2       0.33078    1.08911    0.41040   1.00
O_3      0.39365    1.01875    0.30538   1.00
C4       0.49717    1.02918    0.33133   1.00
C3c      0.46939    1.01660    0.35096   1.00
H1       0.42672    0.96702    0.35465   1.00
C3d      0.55339    1.09383    0.32691   1.00
C3       0.49532    1.06766    0.36598   1.00
O2       0.47109    1.04921    0.38545   1.00
C3       0.57849    1.14518    0.34173   1.00
H1       0.62010    1.19468    0.33743   1.00
C2       0.55052    1.13355    0.36159   1.00
C5       0.41884    1.06835    0.28986   1.00
H2       0.40371    1.04514    0.27447   1.00
H2       0.47563    1.09954    0.29039   1.00
C5       0.38906    1.11465    0.29316   1.00
H2       0.40257    1.13635    0.30875   1.00
H2       0.33241    1.08309    0.29240   1.00
C5       0.41587    1.17179    0.27728   1.00
H2       0.40298    1.15047    0.26167   1.00
H2       0.47220    1.20476    0.27849   1.00
H2       0.39239    1.20420    0.27967   1.00
C5       0.62927    1.09134    0.30467   1.00
C5       0.41594    1.06074    0.38869   1.00
H2       0.60711    1.03533    0.30637   1.00
H2       0.67210    1.11771    0.31569   1.00
H2       0.37328    1.02880    0.37810   1.00
H2       0.43031    1.11515    0.38613   1.00
H2       0.40472    1.13068    0.42699   1.00
H2       0.66382    1.02123    0.27446   1.00
H2       0.73804    1.08646    0.28786   1.00
C2       0.41574    0.87852    0.28434   1.00
C3       0.46504    0.88048    0.29786   1.00
O2       0.49973    0.84653    0.29327   1.00
C3       0.39195    0.92496    0.28739   1.00
H1       0.35296    0.92360    0.27762   1.00
C3a      0.49049    0.92929    0.31359   1.00
H1       0.53100    0.93270    0.32309   1.00
C3b      0.41894    0.97485    0.30264   1.00
C4       0.46870    0.97743    0.31587   1.00
O_3      0.57927    1.11042    0.30743   1.00
C5       0.47256    0.78515    0.30436   1.00
H2       0.47645    0.79493    0.32105   1.00
C5       0.51429    0.75130    0.29871   1.00
H2       0.41798    0.75036    0.30041   1.00
H2       0.56290    0.77654    0.30743   1.00
H2       0.52833    0.76243    0.28240   1.00
C5       0.47571    0.67375    0.30258   1.00
H2       0.45741    0.66338    0.31852   1.00
H2       0.50957    0.65198    0.29992   1.00
H2       0.43139    0.64661    0.29204   1.00
C5       0.65710    1.11167    0.28323   1.00
H2       0.68936    1.16823    0.28259   1.00
H2       0.61331    1.09715    0.27277   1.00
C5       0.69785    1.07728    0.27655   1.00
H2       0.72321    1.09863    0.26178   1.00
C5       0.64618    0.60631    0.41077   1.00
H2       0.60836    0.55978    0.41896   1.00
H2       0.62684    0.64267    0.41171   1.00
C5       0.71642    0.63635    0.42132   1.00
H2       0.71911    0.66735    0.43477   1.00
H2       0.75777    0.66910    0.41053   1.00
O_3      0.62513    0.60658    0.30545   1.00
C4       0.53202    0.50283    0.33133   1.00
C3c      0.54706    0.53050    0.35097   1.00
H1       0.54003    0.57309    0.35467   1.00
C3d      0.54062    0.44672    0.32690   1.00
C3       0.57220    0.50457    0.36600   1.00
O2       0.57782    0.52869    0.38548   1.00
C3       0.56686    0.42162    0.34172   1.00
H1       0.57488    0.38010    0.33740   1.00
C2       0.58304    0.44949    0.36159   1.00
C5       0.64971    0.58156    0.28992   1.00
H2       0.64168    0.59675    0.27454   1.00
H2       0.62421    0.52478    0.29043   1.00
C5       0.72579    0.61146    0.29326   1.00
H2       0.73393    0.59790    0.30885   1.00
H2       0.75079    0.66811    0.29253   1.00
C5       0.75630    0.58484    0.27739   1.00
H2       0.74793    0.59778    0.26177   1.00
H2       0.73304    0.52851    0.27857   1.00
H2       0.81219    0.60840    0.27980   1.00
C5       0.46245    0.37087    0.30461   1.00
C5       0.64443    0.58391    0.38876   1.00
H2       0.42850    0.39292    0.30630   1.00
H2       0.44600    0.32799    0.31560   1.00
H2       0.65513    0.62660    0.37818   1.00
H2       0.68456    0.56966    0.38620   1.00
H2       0.72543    0.59508    0.42709   1.00
H2       0.35792    0.33629    0.27435   1.00
H2       0.34901    0.26206    0.28772   1.00
C2       0.46280    0.58427    0.28434   1.00
C3       0.41544    0.53484    0.29783   1.00
O2       0.34683    0.50007    0.29320   1.00
C3       0.53303    0.60817    0.28742   1.00
H1       0.57067    0.64726    0.27768   1.00
C3a      0.43880    0.50939    0.31356   1.00
H1       0.40169    0.46879    0.32304   1.00
C3b      0.55594    0.58119    0.30267   1.00
C4       0.50874    0.53130    0.31587   1.00
O_3      0.53148    0.42095    0.30740   1.00
C5       0.31245    0.52707    0.30430   1.00
H2       0.31826    0.52311    0.32098   1.00
C5       0.23692    0.48525    0.29860   1.00
H2       0.33217    0.58165    0.30036   1.00
H2       0.21358    0.43659    0.30730   1.00
H2       0.23413    0.47131    0.28229   1.00
C5       0.19779    0.52368    0.30247   1.00
H2       0.20560    0.54188    0.31842   1.00
H2       0.14219    0.48974    0.29978   1.00
H2       0.21495    0.56804    0.29195   1.00
C5       0.45513    0.34317    0.28315   1.00
H2       0.47953    0.31100    0.28252   1.00
H2       0.48439    0.38703    0.27271   1.00
C5       0.38003    0.30233    0.27643   1.00
H2       0.37616    0.27707    0.26165   1.00
C5       0.32526    0.37923    0.24242   1.00
H2       0.37169    0.42887    0.23918   1.00
H2       0.33886    0.33954    0.23889   1.00
C5       0.30618    0.37605    0.26509   1.00
H2       0.33760    0.36169    0.27464   1.00
H2       0.25130    0.33790    0.26735   1.00
O_3      0.07143    0.24483    0.16868   1.00
C4       0.19992    0.36313    0.16450   1.00
C3c      0.23928    0.36231    0.18084   1.00
H1       0.25184    0.32220    0.18189   1.00
C3d      0.18495    0.41638    0.16327   1.00
C3       0.26216    0.41227    0.19618   1.00
O2       0.30724    0.41295    0.21030   1.00
C3       0.20655    0.46547    0.17872   1.00
H1       0.19179    0.50394    0.17749   1.00
C2       0.24576    0.46497    0.19546   1.00
C5       0.01710    0.25610    0.16386   1.00
H2       -0.01728   0.22008    0.15205   1.00
H2       0.03648    0.30919    0.15828   1.00
C5       -0.02403   0.24534    0.18309   1.00
H2       0.01074    0.27998    0.19507   1.00
H2       -0.04365   0.19201    0.18842   1.00
C5       -0.08299   0.25901    0.17936   1.00
H2       -0.11767   0.22492    0.16731   1.00
H2       -0.06334   0.31292    0.17472   1.00
H2       -0.11336   0.24943    0.19347   1.00
C5       0.18076    0.45000    0.13094   1.00
C5       0.27123    0.37449    0.22751   1.00
H2       0.20608    0.42279    0.12460   1.00
H2       0.22053    0.50374    0.13431   1.00
H2       0.23620    0.32028    0.22313   1.00
H2       0.23952    0.39397    0.23469   1.00
H2       0.31634    0.42688    0.27071   1.00
H2       0.17191    0.42653    0.08770   1.00
H2       0.21387    0.51656    0.09417   1.00
C2       0.12241    0.20844    0.11864   1.00
C3       0.18848    0.26561    0.11674   1.00
O2       0.22172    0.28124    0.09830   1.00
C3       0.08454    0.20225    0.13638   1.00
H1       0.03453    0.15823    0.13853   1.00
C3a      0.21426    0.31559    0.13214   1.00
H1       0.26332    0.36094    0.12993   1.00
C3b      0.10944    0.25311    0.15136   1.00
C4       0.17470    0.31043    0.14931   1.00
O_3      0.14212    0.41665    0.14834   1.00
C5       0.27100    0.26051    0.09804   1.00
H2       0.30975    0.28628    0.11026   1.00
C5       0.30618    0.28058    0.07733   1.00
H2       0.24669    0.20425    0.10008   1.00
H2       0.34471    0.33595    0.07764   1.00
H2       0.26700    0.27405    0.06595   1.00
C5       0.33981    0.23836    0.07133   1.00
H2       0.37474    0.24114    0.08360   1.00
H2       0.36962    0.25818    0.05705   1.00
H2       0.30075    0.18385    0.06844   1.00
C5       0.13187    0.45018    0.11513   1.00
H2       0.11565    0.48702    0.12000   1.00
H2       0.08528    0.39874    0.11497   1.00
C5       0.16413    0.46808    0.09384   1.00
H2       0.12988    0.47471    0.08318   1.00
C5       0.38449    0.57967    0.17018   1.00
H2       0.39723    0.56500    0.18492   1.00
H2       0.39829    0.55379    0.15834   1.00
C5       0.30719    0.55460    0.16942   1.00
H2       0.27766    0.49967    0.16522   1.00
H2       0.29688    0.58480    0.15811   1.00
O_3      0.61822    0.89550    0.12966   1.00
C4       0.63790    0.83680    0.16480   1.00
C3c      0.58575    0.76823    0.16468   1.00
H1       0.58413    0.73470    0.15275   1.00
C3d      0.63964    0.87940    0.18064   1.00
C3       0.53455    0.74209    0.17966   1.00
O2       0.49018    0.67282    0.17996   1.00
C3       0.58800    0.85386    0.19537   1.00
H1       0.59010    0.88905    0.20681   1.00
C2       0.53446    0.78483    0.19534   1.00
C5       0.63042    0.96228    0.13299   1.00
H2       0.66865    0.99977    0.12219   1.00
H2       0.64908    0.97970    0.14874   1.00
C5       0.56335    0.96115    0.12996   1.00
H2       0.52462    0.92230    0.14035   1.00
H2       0.54553    0.94431    0.11413   1.00
C5       0.57152    1.03155    0.13401   1.00
H2       0.61047    1.07070    0.12378   1.00
H2       0.58703    1.04738    0.15001   1.00
H2       0.52236    1.03010    0.13128   1.00
C5       0.74697    0.95956    0.19039   1.00
C5       0.43101    0.65706    0.16867   1.00
H2       0.77069    0.93365    0.18223   1.00
H2       0.73697    0.94109    0.20639   1.00
H2       0.44471    0.67258    0.15251   1.00
H2       0.40422    0.68381    0.17453   1.00
H2       0.28774    0.55914    0.18460   1.00
H2       0.89209    1.03665    0.18305   1.00
H2       0.87088    1.02796    0.20989   1.00
C2       0.79054    0.92118    0.11842   1.00
C3       0.79992    0.88875    0.13540   1.00
O2       0.86366    0.89841    0.13989   1.00
C3       0.72860    0.92189    0.11673   1.00
H1       0.71912    0.94474    0.10366   1.00
C3a      0.74869    0.85971    0.15039   1.00
H1       0.75828    0.83853    0.16385   1.00
C3b      0.67870    0.89490    0.13198   1.00
C4       0.68854    0.86362    0.14900   1.00
O_3      0.68682    0.94843    0.18061   1.00
C5       0.86841    0.84128    0.13371   1.00
H2       0.82938    0.79385    0.14147   1.00
C5       0.93978    0.85541    0.13950   1.00
H2       0.86138    0.83362    0.11699   1.00
H2       0.93995    0.84460    0.15597   1.00
H2       0.97548    0.91106    0.13748   1.00
C5       0.96331    0.81357    0.12689   1.00
H2       0.92441    0.75854    0.12780   1.00
H2       1.01272    0.82085    0.13266   1.00
H2       0.97177    0.83009    0.11065   1.00
C5       0.79672    1.03603    0.19032   1.00
H2       0.77832    1.06057    0.20133   1.00
H2       0.79540    1.05624    0.17503   1.00
C5       0.86987    1.05298    0.19547   1.00
H2       0.90316    1.10894    0.19737   1.00
C5       0.39607    0.76010    0.16449   1.00
H2       0.42069    0.79315    0.17788   1.00
H2       0.42058    0.79265    0.15100   1.00
C5       0.40910    0.69921    0.16484   1.00
H2       0.46060    0.71444    0.15872   1.00
H2       0.36992    0.65646    0.15556   1.00
O_3      0.08123    0.71280    0.13377   1.00
C4       0.16336    0.80121    0.16478   1.00
C3c      0.22736    0.80609    0.16268   1.00
H1       0.25732    0.82888    0.14918   1.00
C3d      0.12557    0.77222    0.18262   1.00
C3       0.25328    0.78095    0.17771   1.00
O2       0.31957    0.79497    0.17575   1.00
C3       0.15065    0.74597    0.19744   1.00
H1       0.11879    0.72201    0.21053   1.00
C2       0.21495    0.74981    0.19546   1.00
C5       0.01371    0.66813    0.14019   1.00
H2       -0.02462   0.67113    0.13030   1.00
H2       0.00562    0.67953    0.15608   1.00
C5       0.00194    0.59598    0.13923   1.00
H2       0.04144    0.59347    0.14867   1.00
H2       0.00952    0.58493    0.12327   1.00
C5       -0.06980   0.54410    0.14668   1.00
H2       -0.10950   0.54666    0.13742   1.00
H2       -0.07661   0.55365    0.16284   1.00
H2       -0.07799   0.49156    0.14545   1.00
C5       0.06317    0.82036    0.19311   1.00
C5       0.32095    0.74066    0.16561   1.00
H2       0.09112    0.86517    0.18295   1.00
H2       0.08850    0.83299    0.20827   1.00
H2       0.29933    0.73454    0.15004   1.00
H2       0.29052    0.69082    0.17365   1.00
H2       0.40790    0.68097    0.18067   1.00
H2       0.00270    0.90424    0.18539   1.00
H2       0.02066    0.90092    0.21211   1.00
C2       0.07843    0.86968    0.11862   1.00
C3       0.12242    0.91586    0.13340   1.00
O2       0.12520    0.97752    0.13636   1.00
C3       0.06620    0.80199    0.11893   1.00
H1       0.03420    0.76588    0.10751   1.00
C3a      0.15143    0.89327    0.14829   1.00
H1       0.18185    0.92817    0.16018   1.00
C3b      0.09338    0.77912    0.13413   1.00
C4       0.13625    0.82479    0.14900   1.00
O_3      0.06014    0.76155    0.18475   1.00
C5       0.18405    1.03054    0.12709   1.00
H2       0.23142    1.03416    0.13348   1.00
C5       0.18399    1.09698    0.13133   1.00
H2       0.18329    1.02252    0.11039   1.00
H2       0.20311    1.11390    0.14703   1.00
H2       0.12991    1.08499    0.13115   1.00
C5       0.22681    1.15376    0.11593   1.00
H2       0.27915    1.16128    0.11515   1.00
H2       0.23024    1.20274    0.12047   1.00
H2       0.20319    1.14110    0.10049   1.00
C5       -0.00976   0.80582    0.19552   1.00
H2       -0.03401   0.76916    0.20826   1.00
H2       -0.03857   0.77983    0.18151   1.00
C5       -0.01281   0.87138    0.19921   1.00
H2       -0.06583   0.85825    0.20299   1.00
C5       1.01653    0.57932    0.58291   1.00
H2       1.05739    0.63366    0.58343   1.00
H2       0.96766    0.57954    0.58382   1.00
C5       1.02101    0.54716    0.56267   1.00
H2       0.99621    0.55993    0.55018   1.00
H2       0.99550    0.49073    0.56422   1.00
O_3      0.93745    0.39269    0.67258   1.00
C4       1.02967    0.53342    0.66880   1.00
C3c      1.01820    0.55180    0.64948   1.00
H1       0.96963    0.54777    0.64606   1.00
C3d      1.09366    0.53997    0.67304   1.00
C3       1.06845    0.57460    0.63423   1.00
O2       1.05668    0.59950    0.61657   1.00
C3       1.14333    0.56142    0.65777   1.00
H1       1.19074    0.56334    0.66150   1.00
C2       1.13231    0.57950    0.63808   1.00
C5       0.96630    0.35779    0.68248   1.00
H2       0.93551    0.32805    0.69581   1.00
H2       1.01911    0.39401    0.68780   1.00
C5       0.96877    0.30859    0.66730   1.00
H2       0.99792    0.33807    0.65372   1.00
H2       0.91574    0.27230    0.66223   1.00
C5       1.00184    0.27011    0.67664   1.00
H2       0.97327    0.24094    0.69029   1.00
H2       1.05558    0.30612    0.68106   1.00
H2       1.00183    0.23332    0.66547   1.00
C5       1.12943    0.57096    0.70565   1.00
C5       1.02644    0.54676    0.60201   1.00
H2       1.09063    0.58632    0.70862   1.00
H2       1.17755    0.61669    0.70054   1.00
H2       0.97624    0.50527    0.60765   1.00
H2       1.05865    0.52335    0.59855   1.00
H2       1.07523    0.56744    0.55797   1.00
H2       1.10180    0.58773    0.74738   1.00
H2       1.19009    0.64468    0.74024   1.00
C2       0.87631    0.45647    0.71506   1.00
C3       0.91967    0.52746    0.71276   1.00
O2       0.92515    0.57155    0.72804   1.00
C3       0.88275    0.41236    0.70117   1.00
H1       0.84916    0.35786    0.70220   1.00
C3a      0.96905    0.55247    0.69719   1.00
H1       1.00441    0.60671    0.69635   1.00
C3b      0.93334    0.43728    0.68611   1.00
C4       0.97710    0.50780    0.68404   1.00
O_3      1.10572    0.51771    0.69130   1.00
C5       0.88679    0.60315    0.72319   1.00
H2       0.90483    0.63265    0.70875   1.00
C5       0.89641    0.65182    0.74063   1.00
H2       0.83162    0.56466    0.72162   1.00
H2       0.94644    0.69933    0.73863   1.00
H2       0.90008    0.62761    0.75492   1.00
C5       0.83832    0.66850    0.74204   1.00
H2       0.83185    0.68755    0.72715   1.00
H2       0.84993    0.70828    0.75375   1.00
H2       0.78916    0.62271    0.74661   1.00
C5       1.14316    0.54461    0.72531   1.00
H2       1.18978    0.54048    0.72325   1.00
H2       1.10001    0.49202    0.72801   1.00
C5       1.15120    0.59073    0.74349   1.00
H2       1.16813    0.57409    0.75707   1.00
C5       0.57274    -0.02003   0.58382   1.00
H2       0.58359    -0.06263   0.58488   1.00
H2       0.62292    0.02750    0.58511   1.00
C5       0.53949    -0.02285   0.56307   1.00
H2       0.57890    0.00050    0.55098   1.00
H2       0.51061    0.00495    0.56393   1.00
O_3      0.46100    0.06745    0.67110   1.00
C4       0.50369    -0.02969   0.66881   1.00
C3c      0.53577    -0.01966   0.64988   1.00
H1       0.58208    0.02776    0.64678   1.00
C3d      0.44394    -0.09225   0.67265   1.00
C3       0.50838    -0.06986   0.63462   1.00
O2       0.54689    -0.05987   0.61745   1.00
C3       0.41583    -0.14181   0.65735   1.00
H1       0.36863    -0.18799   0.66075   1.00
C2       0.44720    -0.13220   0.63804   1.00
C5       0.39626    0.04131    0.68022   1.00
H2       0.39722    0.07293    0.69331   1.00
H2       0.37664    -0.01192   0.68570   1.00
C5       0.34787    0.04137    0.66427   1.00
H2       0.34837    0.01136    0.65095   1.00
H2       0.36761    0.09483    0.65905   1.00
C5       0.27539    0.01132    0.67275   1.00
H2       0.27459    0.04075    0.68615   1.00
H2       0.25474    -0.04281   0.67732   1.00
H2       0.24109    0.01318    0.66102   1.00
C5       0.43322    -0.12840   0.70544   1.00
C5       0.52851    -0.02779   0.60232   1.00
H2       0.48753    -0.09145   0.70894   1.00
H2       0.42899    -0.17766   0.70067   1.00
H2       0.53892    0.02327    0.60769   1.00
H2       0.47319    -0.05792   0.59825   1.00
H2       0.50423    -0.07668   0.55827   1.00
H2       0.47250    -0.10208   0.74760   1.00
H2       0.43825    -0.19101   0.74067   1.00
C2       0.58019    0.12389    0.71500   1.00
C3       0.60503    0.07796    0.71348   1.00
O2       0.64029    0.07043    0.72939   1.00
C3       0.53251    0.11984    0.70039   1.00
H1       0.51386    0.15539    0.70082   1.00
C3a      0.58070    0.02848    0.69793   1.00
H1       0.59726    -0.00877   0.69766   1.00
C3b      0.50679    0.06920    0.68534   1.00
C4       0.53074    0.02291    0.68404   1.00
O_3      0.40762    -0.10265   0.69045   1.00
C5       0.71092    0.10603    0.72533   1.00
H2       0.72295    0.08682    0.71122   1.00
C5       0.74612    0.09425    0.74343   1.00
H2       0.73027    0.16171    0.72359   1.00
H2       0.74126    0.04307    0.74179   1.00
H2       0.71700    0.09207    0.75730   1.00
C5       0.82168    0.14988    0.74555   1.00
H2       0.84873    0.15505    0.73102   1.00
H2       0.84694    0.13659    0.75777   1.00
H2       0.82700    0.20015    0.74977   1.00
C5       0.39104    -0.14021   0.72456   1.00
H2       0.33951    -0.18535   0.72208   1.00
H2       0.38382    -0.09545   0.72677   1.00
C5       0.42528    -0.15031   0.74338   1.00
H2       0.39003    -0.16579   0.75655   1.00
C5       0.40780    0.42767    0.58378   1.00
H2       0.35430    0.41671    0.58481   1.00
H2       0.40524    0.37753    0.58505   1.00
C5       0.43830    0.46107    0.56305   1.00
H2       0.42237    0.42173    0.55094   1.00
H2       0.49498    0.49004    0.56394   1.00
O_3      0.60649    0.53925    0.67116   1.00
C4       0.46660    0.49630    0.66881   1.00
C3c      0.44471    0.46432    0.64986   1.00
H1       0.44595    0.41808    0.64674   1.00
C3d      0.46365    0.55597    0.67267   1.00
C3       0.42190    0.49171    0.63460   1.00
O2       0.39354    0.45328    0.61741   1.00
C3       0.44219    0.58408    0.65737   1.00
H1       0.44309    0.63121    0.66078   1.00
C2       0.42058    0.55280    0.63804   1.00
C5       0.64493    0.60395    0.68032   1.00
H2       0.67556    0.60299    0.69342   1.00
H2       0.61121    0.62345    0.68579   1.00
C5       0.69343    0.65249    0.66440   1.00
H2       0.66296    0.65199    0.65106   1.00
H2       0.72725    0.63288    0.65918   1.00
C5       0.73568    0.72493    0.67292   1.00
H2       0.76587    0.72572    0.68633   1.00
H2       0.70210    0.74546    0.67748   1.00
H2       0.77187    0.75934    0.66121   1.00
C5       0.43797    0.56643    0.70545   1.00
C5       0.44410    0.47183    0.60230   1.00
H2       0.42070    0.51213    0.70893   1.00
H2       0.39291    0.57059    0.70067   1.00
H2       0.48478    0.46149    0.60769   1.00
H2       0.46922    0.52717    0.59826   1.00
H2       0.41966    0.49628    0.55826   1.00
H2       0.42485    0.52694    0.74760   1.00
H2       0.37006    0.56106    0.74066   1.00
C2       0.54368    0.41981    0.71500   1.00
C3       0.47290    0.39485    0.71345   1.00
O2       0.43005    0.35945    0.72933   1.00
C3       0.58734    0.46761    0.70042   1.00
H1       0.64156    0.48637    0.70088   1.00
C3a      0.44776    0.41918    0.69790   1.00
H1       0.39392    0.40252    0.69761   1.00
C3b      0.56242    0.49333    0.68538   1.00
C4       0.49216    0.46927    0.68404   1.00
O_3      0.48941    0.59221    0.69049   1.00
C5       0.39516    0.28883    0.72524   1.00
H2       0.36399    0.27683    0.71112   1.00
C5       0.34810    0.25347    0.74331   1.00
H2       0.43159    0.26960    0.72350   1.00
H2       0.30172    0.25823    0.74166   1.00
H2       0.37492    0.28254    0.75720   1.00
C5       0.32831    0.17795    0.74540   1.00
H2       0.30656    0.15096    0.73085   1.00
H2       0.28970    0.15256    0.75760   1.00
H2       0.37330    0.17271    0.74964   1.00
C5       0.46817    0.60853    0.72459   1.00
H2       0.47447    0.66003    0.72213   1.00
H2       0.52018    0.61585    0.72682   1.00
C5       0.42374    0.57412    0.74339   1.00
H2       0.44339    0.60931    0.75658   1.00
C5       0.29706    -0.32264   0.17353   1.00
H2       0.25815    -0.32530   0.16274   1.00
H2       0.27708    -0.32269   0.18892   1.00
C5       0.30550    -0.38587   0.17068   1.00
H2       0.26457    -0.43079   0.17883   1.00
H2       0.35599    -0.37506   0.17659   1.00
O_3      0.58039    -0.00412   0.19231   1.00
C4       0.46687    -0.02897   0.16860   1.00
C3c      0.41654    -0.09661   0.17269   1.00
H1       0.39532    -0.11055   0.18778   1.00
C3d      0.49315    -0.01165   0.14876   1.00
C3       0.39354    -0.14733   0.15758   1.00
O2       0.33849    -0.21025   0.16203   1.00
C3       0.47130    -0.06231   0.13378   1.00
H1       0.49466    -0.04711   0.11898   1.00
C2       0.42098    -0.13111   0.13772   1.00
C5       0.64282    0.03523    0.18202   1.00
H2       0.67888    0.08166    0.19073   1.00
H2       0.63459    0.05170    0.16684   1.00
C5       0.67515    -0.00904   0.17921   1.00
H2       0.63834    -0.05634   0.17102   1.00
H2       0.68372    -0.02464   0.19447   1.00
C5       0.74242    0.02919    0.16746   1.00
H2       0.77925    0.07672    0.17549   1.00
H2       0.73358    0.04271    0.15196   1.00
H2       0.76603    -0.00343   0.16594   1.00
C5       0.51991    0.09559    0.13904   1.00
C5       0.36132    -0.25405   0.16939   1.00
H2       0.49111    0.10111    0.15186   1.00
H2       0.48556    0.07565    0.12558   1.00
H2       0.39102    -0.23304   0.18367   1.00
H2       0.39510    -0.26057   0.15833   1.00
H2       0.30109    -0.40078   0.15435   1.00
H2       0.54672    0.23114    0.14882   1.00
H2       0.51508    0.20550    0.12313   1.00
C2       0.54439    0.12582    0.21443   1.00
C3       0.48523    0.11177    0.20345   1.00
O2       0.46184    0.15754    0.20356   1.00
C3       0.57481    0.08548    0.21058   1.00
H1       0.61910    0.09378    0.21909   1.00
C3a      0.45911    0.05963    0.18870   1.00
H1       0.41611    0.05210    0.17962   1.00
C3b      0.55000    0.03514    0.19544   1.00
C4       0.49181    0.02193    0.18433   1.00
O_3      0.54637    0.05295    0.14432   1.00
C5       0.40560    0.13488    0.21678   1.00
H2       0.36282    0.08397    0.21206   1.00
C5       0.38207    0.18750    0.21579   1.00
H2       0.42029    0.13111    0.23266   1.00
H2       0.35087    0.17788    0.20183   1.00
H2       0.42839    0.23858    0.21387   1.00
C5       0.34151    0.18645    0.23471   1.00
H2       0.29860    0.13385    0.23730   1.00
H2       0.32044    0.22120    0.23269   1.00
H2       0.37472    0.20449    0.24849   1.00
C5       0.58003    0.16549    0.13393   1.00
H2       0.60161    0.16205    0.11909   1.00
H2       0.62047    0.17854    0.14555   1.00
C5       0.55951    0.22083    0.13335   1.00
H2       0.60260    0.26938    0.12754   1.00
C5       1.05525    0.37940    0.09355   1.00
H2       1.05902    0.42130    0.08388   1.00
H2       1.00093    0.33845    0.09296   1.00
C5       1.10163    0.35348    0.08483   1.00
H2       1.07591    0.31728    0.07208   1.00
H2       1.11437    0.32727    0.09689   1.00
O_3      1.02973    0.40697    0.19794   1.00
C4       1.02910    0.49711    0.16865   1.00
C3c      1.01971    0.46417    0.14989   1.00
H1       0.97263    0.41739    0.14688   1.00
C3d      1.09043    0.55853    0.17215   1.00
C3       1.07087    0.49024    0.13489   1.00
O2       1.05486    0.45992    0.11607   1.00
C3       1.14199    0.58393    0.15740   1.00
H1       1.18909    0.62988    0.16105   1.00
C2       1.13362    0.55086    0.13844   1.00
C5       1.07857    0.44087    0.21333   1.00
H2       1.05547    0.42833    0.22878   1.00
H2       1.10469    0.49732    0.21132   1.00
C5       1.13103    0.41790    0.21189   1.00
H2       1.15273    0.42868    0.19627   1.00
H2       1.10449    0.36159    0.21410   1.00
C5       1.18762    0.45432    0.22770   1.00
H2       1.16625    0.44417    0.24332   1.00
H2       1.21569    0.51037    0.22507   1.00
H2       1.22466    0.43578    0.22671   1.00
C5       1.07812    0.63509    0.19155   1.00
C5       1.07368    0.40914    0.11499   1.00
H2       1.02176    0.60716    0.18969   1.00
H2       1.10112    0.67500    0.17953   1.00
H2       1.04481    0.36859    0.12649   1.00
H2       1.12926    0.42988    0.11796   1.00
H2       1.14984    0.39638    0.07848   1.00
H2       0.99923    0.66723    0.21920   1.00
H2       1.05953    0.74039    0.20435   1.00
C2       0.87866    0.41635    0.21570   1.00
C3       0.87523    0.45858    0.20055   1.00
O2       0.83516    0.48798    0.20331   1.00
C3       0.93054    0.39905    0.21430   1.00
H1       0.93348    0.36540    0.22537   1.00
C3a      0.92409    0.48373    0.18483   1.00
H1       0.92312    0.51911    0.17401   1.00
C3b      0.98035    0.42589    0.19903   1.00
C4       0.97750    0.46871    0.18415   1.00
O_3      1.10428    0.59016    0.19090   1.00
C5       0.77400    0.45207    0.19219   1.00
H2       0.78432    0.45213    0.17563   1.00
C5       0.73318    0.48833    0.19577   1.00
H2       0.74373    0.39820    0.19747   1.00
H2       0.75424    0.53413    0.18581   1.00
H2       0.74278    0.50738    0.21169   1.00
C5       0.65613    0.44189    0.19197   1.00
H2       0.64784    0.41908    0.17658   1.00
H2       0.62906    0.47146    0.19305   1.00
H2       0.63251    0.40036    0.20356   1.00
C5       1.09563    0.66954    0.21224   1.00
H2       1.15139    0.70663    0.21270   1.00
H2       1.08525    0.63004    0.22395   1.00
C5       1.05433    0.70513    0.21687   1.00
H2       1.07339    0.73552    0.23103   1.00
C5       0.60581    0.64525    0.08911   1.00
H2       0.55915    0.60746    0.08097   1.00
H2       0.64202    0.62573    0.08817   1.00
C5       0.63595    0.71541    0.07850   1.00
H2       0.66679    0.71786    0.06504   1.00
H2       0.66890    0.75682    0.08925   1.00
O_3      0.60697    0.62516    0.19445   1.00
C4       0.50283    0.53202    0.16867   1.00
C3c      0.53032    0.54680    0.14901   1.00
H1       0.57277    0.53956    0.14529   1.00
C3d      0.44689    0.54088    0.17313   1.00
C3       0.50440    0.57194    0.13398   1.00
O2       0.52831    0.57729    0.11448   1.00
C3       0.42181    0.56713    0.15831   1.00
H1       0.38043    0.57536    0.16263   1.00
C2       0.44950    0.58305    0.13841   1.00
C5       0.58223    0.65002    0.20997   1.00
H2       0.59750    0.64207    0.22535   1.00
H2       0.52546    0.62469    0.20950   1.00
C5       0.61232    0.72610    0.20657   1.00
H2       0.59868    0.73417    0.19099   1.00
H2       0.66897    0.75095    0.20726   1.00
C5       0.58601    0.75693    0.22244   1.00
H2       0.59905    0.74864    0.23805   1.00
H2       0.52970    0.73382    0.22130   1.00
H2       0.60972    0.81280    0.21999   1.00
C5       0.37110    0.46307    0.19550   1.00
C5       0.58364    0.64379    0.11113   1.00
H2       0.39297    0.42896    0.19382   1.00
H2       0.32814    0.44665    0.18454   1.00
H2       0.62639    0.65445    0.12168   1.00
H2       0.56959    0.68407    0.11368   1.00
H2       0.59474    0.72454    0.07275   1.00
H2       0.33647    0.35876    0.22584   1.00
H2       0.26223    0.34999    0.21251   1.00
C2       0.58429    0.46281    0.21565   1.00
C3       0.53466    0.41542    0.20222   1.00
O2       0.49973    0.34686    0.20690   1.00
C3       0.60838    0.53306    0.21253   1.00
H1       0.64762    0.57071    0.22222   1.00
C3a      0.50919    0.43877    0.18649   1.00
H1       0.46844    0.40165    0.17706   1.00
C3b      0.58139    0.55596    0.19728   1.00
C4       0.53130    0.50874    0.18413   1.00
O_3      0.42132    0.53201    0.19264   1.00
C5       0.52645    0.31221    0.19582   1.00
H2       0.52236    0.31789    0.17913   1.00
C5       0.48448    0.23675    0.20158   1.00
H2       0.58104    0.33180    0.19971   1.00
H2       0.43575    0.21346    0.19292   1.00
H2       0.47071    0.23416    0.21790   1.00
C5       0.52265    0.19737    0.19772   1.00
H2       0.54071    0.20497    0.18175   1.00
H2       0.48860    0.14181    0.20045   1.00
H2       0.56710    0.21449    0.20820   1.00
C5       0.34363    0.45604    0.21697   1.00
H2       0.31162    0.48061    0.21762   1.00
H2       0.38761    0.48529    0.22738   1.00
C5       0.30264    0.38102    0.22376   1.00
H2       0.27755    0.37737    0.23856   1.00
C5       0.34303    0.64431    0.65937   1.00
H2       0.33796    0.60276    0.66946   1.00
H2       0.34191    0.62623    0.64364   1.00
C5       0.28235    0.65639    0.66294   1.00
H2       0.23643    0.61837    0.65447   1.00
H2       0.29597    0.70858    0.65787   1.00
O_3      0.66894    0.91912    0.64289   1.00
C4       0.63766    0.80016    0.66473   1.00
C3c      0.56914    0.75321    0.66034   1.00
H1       0.55448    0.73465    0.64501   1.00
C3d      0.65584    0.82296    0.68486   1.00
C3       0.51848    0.73025    0.67547   1.00
O2       0.45424    0.67821    0.67059   1.00
C3       0.60532    0.80121    0.69988   1.00
H1       0.62132    0.82194    0.71495   1.00
C2       0.53567    0.75431    0.69566   1.00
C5       0.71077    0.97927    0.65395   1.00
H2       0.75801    1.01488    0.64550   1.00
H2       0.72605    0.96738    0.66881   1.00
C5       0.66990    1.01475    0.65775   1.00
H2       0.62177    0.97849    0.66569   1.00
H2       0.65548    1.02694    0.64281   1.00
C5       0.71092    1.07970    0.67037   1.00
H2       0.75928    1.11593    0.66259   1.00
H2       0.72331    1.06731    0.68555   1.00
H2       0.68080    1.10572    0.67260   1.00
C5       0.76116    0.84238    0.69409   1.00
C5       0.41333    0.70553    0.66406   1.00
H2       0.76486    0.81448    0.68071   1.00
H2       0.73962    0.80614    0.70708   1.00
H2       0.43565    0.73706    0.65015   1.00
H2       0.40899    0.73889    0.67578   1.00
H2       0.26748    0.65018    0.67931   1.00
H2       0.89410    0.86322    0.68358   1.00
H2       0.86707    0.82816    0.70889   1.00
C2       0.79269    0.87771    0.61898   1.00
C3       0.77534    0.81600    0.62899   1.00
O2       0.81818    0.78918    0.62803   1.00
C3       0.75549    0.91083    0.62374   1.00
H1       0.76634    0.95720    0.61597   1.00
C3a      0.72312    0.78998    0.64372   1.00
H1       0.71309    0.74479    0.65207   1.00
C3b      0.70509    0.88598    0.63886   1.00
C4       0.68861    0.82520    0.64902   1.00
O_3      0.72159    0.87302    0.68968   1.00
C5       0.79292    0.73485    0.61402   1.00
H2       0.74097    0.69324    0.61841   1.00
C5       0.84238    0.70729    0.61410   1.00
H2       0.79034    0.75271    0.59846   1.00
H2       0.83101    0.67359    0.62756   1.00
H2       0.89465    0.75149    0.61640   1.00
C5       0.83906    0.66867    0.59448   1.00
H2       0.78554    0.62819    0.59158   1.00
H2       0.87137    0.64457    0.59579   1.00
H2       0.85870    0.70391    0.58116   1.00
C5       0.83247    0.89910    0.69965   1.00
H2       0.83032    0.91912    0.71489   1.00
H2       0.84771    0.94173    0.68867   1.00
C5       0.88475    0.87453    0.69935   1.00
H2       0.93434    0.91494    0.70550   1.00
C5       0.42853    0.60416    0.67339   1.00
H2       0.40828    0.63972    0.67447   1.00
H2       0.44350    0.60546    0.65728   1.00
C5       0.49140    0.62918    0.68741   1.00
H2       0.53797    0.67028    0.67993   1.00
H2       0.49984    0.58606    0.69119   1.00
O_3      0.19440    0.25745    0.66481   1.00
C4       0.16268    0.36282    0.66459   1.00
C3c      0.22503    0.42357    0.66204   1.00
H1       0.25350    0.43218    0.64813   1.00
C3d      0.12591    0.35302    0.68271   1.00
C3       0.25208    0.47351    0.67738   1.00
O2       0.30896    0.53501    0.67284   1.00
C3       0.15333    0.40207    0.69817   1.00
H1       0.12445    0.39123    0.71208   1.00
C2       0.21667    0.46345    0.69593   1.00
C5       0.15587    0.20619    0.67918   1.00
H2       0.12811    0.15448    0.67218   1.00
H2       0.11775    0.21614    0.68683   1.00
C5       0.20509    0.20674    0.69494   1.00
H2       0.23420    0.25895    0.70153   1.00
H2       0.24250    0.19612    0.68716   1.00
C5       0.16697    0.15391    0.71161   1.00
H2       0.13741    0.10172    0.70512   1.00
H2       0.13132    0.16584    0.71986   1.00
H2       0.20390    0.15402    0.72275   1.00
C5       0.01040    0.29457    0.67864   1.00
C5       0.36844    0.53373    0.67863   1.00
H2       0.01432    0.30127    0.66189   1.00
H2       0.00546    0.33696    0.68550   1.00
H2       0.37223    0.49332    0.67003   1.00
H2       0.36896    0.52279    0.69516   1.00
H2       0.48473    0.65159    0.70174   1.00
H2       -0.10910   0.20812    0.65473   1.00
H2       -0.12319   0.26083    0.67266   1.00
C2       0.08152    0.20574    0.61947   1.00
C3       0.06788    0.26006    0.61844   1.00
O2       0.01580    0.25499    0.60636   1.00
C3       0.12496    0.20661    0.63504   1.00
H1       0.13781    0.16671    0.63593   1.00
C3a      0.09609    0.31245    0.63311   1.00
H1       0.08203    0.35158    0.63280   1.00
C3b      0.15115    0.25761    0.64998   1.00
C4       0.13670    0.31102    0.64912   1.00
O_3      0.06690    0.29197    0.68660   1.00
C5       0.04249    0.29233    0.58827   1.00
H2       0.07832    0.34741    0.59150   1.00
C5       -0.01803   0.28513    0.57593   1.00
H2       0.07007    0.27182    0.57934   1.00
H2       -0.03340   0.32116    0.58217   1.00
H2       -0.06166   0.23279    0.57861   1.00
C5       -0.00240   0.29784    0.55307   1.00
H2       0.04445    0.34806    0.55079   1.00
H2       -0.04541   0.29784    0.54488   1.00
H2       0.00462    0.25683    0.54604   1.00
C5       -0.05323   0.22707    0.68360   1.00
H2       -0.06357   0.22584    0.70015   1.00
H2       -0.04219   0.18517    0.68052   1.00
C5       -0.11530   0.21632    0.67111   1.00
H2       -0.16207   0.17032    0.67660   1.00
C5       0.18688    0.57600    0.67149   1.00
H2       0.24284    0.59826    0.67313   1.00
H2       0.17558    0.56269    0.65519   1.00
C5       0.14953    0.51124    0.68479   1.00
H2       0.14710    0.46648    0.67698   1.00
H2       0.09675    0.50011    0.68812   1.00
O_3      0.06143    0.79988    0.66355   1.00
C4       0.20013    0.83735    0.66460   1.00
C3c      0.20182    0.77680    0.66164   1.00
H1       0.18457    0.74977    0.64740   1.00
C3d      0.22374    0.87231    0.68315   1.00
C3       0.22469    0.74969    0.67697   1.00
O2       0.23272    0.69501    0.67210   1.00
C3       0.24532    0.84476    0.69859   1.00
H1       0.26068    0.87210    0.71281   1.00
C2       0.24666    0.78319    0.69592   1.00
C5       0.04481    0.83511    0.67806   1.00
H2       0.01982    0.86186    0.67107   1.00
H2       0.09120    0.87364    0.68633   1.00
C5       -0.00448   0.78293    0.69312   1.00
H2       0.01976    0.75487    0.69969   1.00
H2       -0.05084   0.74511    0.68473   1.00
C5       -0.02339   0.81738    0.70991   1.00
H2       -0.04719   0.84590    0.70345   1.00
H2       0.02254    0.85342    0.71875   1.00
H2       -0.06060   0.77830    0.72052   1.00
C5       0.27699    0.98809    0.68027   1.00
C5       0.17277    0.63345    0.67703   1.00
H2       0.28203    0.98641    0.66353   1.00
H2       0.32432    0.99434    0.68752   1.00
H2       0.12879    0.62869    0.66807   1.00
H2       0.15907    0.63042    0.69345   1.00
H2       0.17721    0.51741    0.69938   1.00
H2       0.30788    1.10901    0.65741   1.00
H2       0.37335    1.12378    0.67593   1.00
C2       0.12401    0.91824    0.61946   1.00
C3       0.19297    0.93490    0.61904   1.00
O2       0.23999    0.98934    0.60767   1.00
C3       0.08070    0.87201    0.63441   1.00
H1       0.02726    0.85686    0.63480   1.00
C3a      0.21730    0.90680    0.63370   1.00
H1       0.27105    0.92307    0.63389   1.00
C3b      0.10552    0.84587    0.64935   1.00
C4       0.17433    0.86329    0.64912   1.00
O_3      0.21833    0.92926    0.68740   1.00
C5       0.25436    0.96600    0.58951   1.00
H2       0.27539    0.93161    0.59265   1.00
C5       0.30745    1.02900    0.57798   1.00
H2       0.20760    0.93790    0.58004   1.00
H2       0.35851    1.04568    0.58471   1.00
H2       0.29610    1.07079    0.58087   1.00
C5       0.30799    1.01637    0.55501   1.00
H2       0.31398    0.97113    0.55246   1.00
H2       0.35087    1.06131    0.54744   1.00
H2       0.26005    1.00808    0.54757   1.00
C5       0.26935    1.04934    0.68561   1.00
H2       0.27616    1.05787    0.70228   1.00
H2       0.21611    1.03643    0.68205   1.00
C5       0.32033    1.11378    0.67392   1.00
H2       0.31819    1.15875    0.67972   1.00
