data_IRMOF10_interpen_symm_ligand1cp_symm_l

_audit_creation_method             'generated by an auxiliary program of Tobunporous'

_symmetry_space_group_name_H-M     'P 1'
_symmetry_Int_Tables_number        1
_symmetry_cell_setting             triclinic

_cell_length_a                    22.6523
_cell_length_b                    22.6523
_cell_length_c                    65.9502
_cell_angle_alpha                 90.0000
_cell_angle_beta                  90.0000
_cell_angle_gamma                 120.0000

loop_
_atom_site_label
_atom_site_fract_x
_atom_site_fract_y
_atom_site_fract_z
_atom_site_occupancy
O1       0.00000    0.00000    0.57470   1.00
Zn      0.00000    0.00000    0.54560   1.00
Zn      0.94843    0.04287    0.58357   1.00
Zn      0.09443    0.05157    0.58357   1.00
Zn      0.95713    0.90557    0.58357   1.00
O2       0.93860    0.02610    0.53560   1.00
O2       0.08750    0.06140    0.53560   1.00
O2       0.97390    0.91250    0.53560   1.00
O2       0.91300    0.07160    0.56150   1.00
O2       0.00463    0.12027    0.60077   1.00
O2       0.87413    0.98077    0.60037   1.00
O2       0.15860    0.08700    0.56150   1.00
O2       0.10663    0.12587    0.60037   1.00
O2       0.11563    0.99537    0.60077   1.00
O2       0.92840    0.84140    0.56150   1.00
O2       0.87973    0.88437    0.60077   1.00
O2       0.01923    0.89337    0.60037   1.00
C1       0.91390    0.06020    0.54330   1.00
C1       0.14630    0.08610    0.54330   1.00
C1       0.93980    0.85370    0.54330   1.00
C1       0.06663    0.14397    0.60637   1.00
C1       0.85603    0.92267    0.60637   1.00
C1       0.07733    0.93337    0.60637   1.00
O1       0.00000    0.00000    0.92530   1.00
Zn      0.00000    0.00000    0.95440   1.00
Zn      0.04287    0.94843    0.91643   1.00
Zn      0.05157    0.09443    0.91643   1.00
Zn      0.90557    0.95713    0.91643   1.00
O2       0.02610    0.93860    0.96440   1.00
O2       0.06140    0.08750    0.96440   1.00
O2       0.91250    0.97390    0.96440   1.00
O2       0.07160    0.91300    0.93850   1.00
O2       0.12027    0.00463    0.89923   1.00
O2       0.98077    0.87413    0.89963   1.00
O2       0.08700    0.15860    0.93850   1.00
O2       0.12587    0.10663    0.89963   1.00
O2       0.99537    0.11563    0.89923   1.00
O2       0.84140    0.92840    0.93850   1.00
O2       0.88437    0.87973    0.89923   1.00
O2       0.89337    0.01923    0.89963   1.00
C1       0.06020    0.91390    0.95670   1.00
C1       0.08610    0.14630    0.95670   1.00
C1       0.85370    0.93980    0.95670   1.00
C1       0.14397    0.06663    0.89363   1.00
C1       0.92267    0.85603    0.89363   1.00
C1       0.93337    0.07733    0.89363   1.00
O1       0.00000    0.00000    0.42530   1.00
Zn      0.00000    0.00000    0.45440   1.00
Zn      0.05157    0.95713    0.41643   1.00
Zn      0.90557    0.94843    0.41643   1.00
Zn      0.04287    0.09443    0.41643   1.00
O2       0.06140    0.97390    0.46440   1.00
O2       0.91250    0.93860    0.46440   1.00
O2       0.02610    0.08750    0.46440   1.00
O2       0.08700    0.92840    0.43850   1.00
O2       0.99537    0.87973    0.39923   1.00
O2       0.12587    0.01923    0.39963   1.00
O2       0.84140    0.91300    0.43850   1.00
O2       0.89337    0.87413    0.39963   1.00
O2       0.88437    0.00463    0.39923   1.00
O2       0.07160    0.15860    0.43850   1.00
O2       0.12027    0.11563    0.39923   1.00
O2       0.98077    0.10663    0.39963   1.00
C1       0.08610    0.93980    0.45670   1.00
C1       0.85370    0.91390    0.45670   1.00
C1       0.06020    0.14630    0.45670   1.00
C1       0.93337    0.85603    0.39363   1.00
C1       0.14397    0.07733    0.39363   1.00
C1       0.92267    0.06663    0.39363   1.00
O1       0.00000    0.00000    0.07470   1.00
Zn      0.00000    0.00000    0.04560   1.00
Zn      0.95713    0.05157    0.08357   1.00
Zn      0.94843    0.90557    0.08357   1.00
Zn      0.09443    0.04287    0.08357   1.00
O2       0.97390    0.06140    0.03560   1.00
O2       0.93860    0.91250    0.03560   1.00
O2       0.08750    0.02610    0.03560   1.00
O2       0.92840    0.08700    0.06150   1.00
O2       0.87973    0.99537    0.10077   1.00
O2       0.01923    0.12587    0.10037   1.00
O2       0.91300    0.84140    0.06150   1.00
O2       0.87413    0.89337    0.10037   1.00
O2       0.00463    0.88437    0.10077   1.00
O2       0.15860    0.07160    0.06150   1.00
O2       0.11563    0.12027    0.10077   1.00
O2       0.10663    0.98077    0.10037   1.00
C1       0.93980    0.08610    0.04330   1.00
C1       0.91390    0.85370    0.04330   1.00
C1       0.14630    0.06020    0.04330   1.00
C1       0.85603    0.93337    0.10637   1.00
C1       0.07733    0.14397    0.10637   1.00
C1       0.06663    0.92267    0.10637   1.00
O1       0.66667    0.33333    0.90803   1.00
Zn      0.66667    0.33333    0.87893   1.00
Zn      0.61510    0.37620    0.91690   1.00
Zn      0.76110    0.38490    0.91690   1.00
Zn      0.62380    0.23890    0.91690   1.00
O2       0.60527    0.35943    0.86893   1.00
O2       0.75417    0.39473    0.86893   1.00
O2       0.64057    0.24583    0.86893   1.00
O2       0.57967    0.40493    0.89483   1.00
O2       0.67130    0.45360    0.93410   1.00
O2       0.54080    0.31410    0.93370   1.00
O2       0.82527    0.42033    0.89483   1.00
O2       0.77330    0.45920    0.93370   1.00
O2       0.78230    0.32870    0.93410   1.00
O2       0.59507    0.17473    0.89483   1.00
O2       0.54640    0.21770    0.93410   1.00
O2       0.68590    0.22670    0.93370   1.00
C1       0.58057    0.39353    0.87663   1.00
C1       0.81297    0.41943    0.87663   1.00
C1       0.60647    0.18703    0.87663   1.00
C1       0.73330    0.47730    0.93970   1.00
C1       0.52270    0.25600    0.93970   1.00
C1       0.74400    0.26670    0.93970   1.00
O1       0.66667    0.33333    0.25863   1.00
Zn      0.66667    0.33333    0.28773   1.00
Zn      0.70953    0.28177    0.24977   1.00
Zn      0.71823    0.42777    0.24977   1.00
Zn      0.57223    0.29047    0.24977   1.00
O2       0.69277    0.27193    0.29773   1.00
O2       0.72807    0.42083    0.29773   1.00
O2       0.57917    0.30723    0.29773   1.00
O2       0.73827    0.24633    0.27183   1.00
O2       0.78693    0.33797    0.23257   1.00
O2       0.64743    0.20747    0.23297   1.00
O2       0.75367    0.49193    0.27183   1.00
O2       0.79253    0.43997    0.23297   1.00
O2       0.66203    0.44897    0.23257   1.00
O2       0.50807    0.26173    0.27183   1.00
O2       0.55103    0.21307    0.23257   1.00
O2       0.56003    0.35257    0.23297   1.00
C1       0.72687    0.24723    0.29003   1.00
C1       0.75277    0.47963    0.29003   1.00
C1       0.52037    0.27313    0.29003   1.00
C1       0.81063    0.39997    0.22697   1.00
C1       0.58933    0.18937    0.22697   1.00
C1       0.60003    0.41067    0.22697   1.00
O1       0.66667    0.33333    0.75863   1.00
Zn      0.66667    0.33333    0.78773   1.00
Zn      0.71823    0.29047    0.74977   1.00
Zn      0.57223    0.28177    0.74977   1.00
Zn      0.70953    0.42777    0.74977   1.00
O2       0.72807    0.30723    0.79773   1.00
O2       0.57917    0.27193    0.79773   1.00
O2       0.69277    0.42083    0.79773   1.00
O2       0.75367    0.26173    0.77183   1.00
O2       0.66203    0.21307    0.73257   1.00
O2       0.79253    0.35257    0.73297   1.00
O2       0.50807    0.24633    0.77183   1.00
O2       0.56003    0.20747    0.73297   1.00
O2       0.55103    0.33797    0.73257   1.00
O2       0.73827    0.49193    0.77183   1.00
O2       0.78693    0.44897    0.73257   1.00
O2       0.64743    0.43997    0.73297   1.00
C1       0.75277    0.27313    0.79003   1.00
C1       0.52037    0.24723    0.79003   1.00
C1       0.72687    0.47963    0.79003   1.00
C1       0.60003    0.18937    0.72697   1.00
C1       0.81063    0.41067    0.72697   1.00
C1       0.58933    0.39997    0.72697   1.00
O1       0.66667    0.33333    0.40803   1.00
Zn      0.66667    0.33333    0.37893   1.00
Zn      0.62380    0.38490    0.41690   1.00
Zn      0.61510    0.23890    0.41690   1.00
Zn      0.76110    0.37620    0.41690   1.00
O2       0.64057    0.39473    0.36893   1.00
O2       0.60527    0.24583    0.36893   1.00
O2       0.75417    0.35943    0.36893   1.00
O2       0.59507    0.42033    0.39483   1.00
O2       0.54640    0.32870    0.43410   1.00
O2       0.68590    0.45920    0.43370   1.00
O2       0.57967    0.17473    0.39483   1.00
O2       0.54080    0.22670    0.43370   1.00
O2       0.67130    0.21770    0.43410   1.00
O2       0.82527    0.40493    0.39483   1.00
O2       0.78230    0.45360    0.43410   1.00
O2       0.77330    0.31410    0.43370   1.00
C1       0.60647    0.41943    0.37663   1.00
C1       0.58057    0.18703    0.37663   1.00
C1       0.81297    0.39353    0.37663   1.00
C1       0.52270    0.26670    0.43970   1.00
C1       0.74400    0.47730    0.43970   1.00
C1       0.73330    0.25600    0.43970   1.00
O1       0.33333    0.66667    0.24137   1.00
Zn      0.33333    0.66667    0.21227   1.00
Zn      0.28177    0.70953    0.25023   1.00
Zn      0.42777    0.71823    0.25023   1.00
Zn      0.29047    0.57223    0.25023   1.00
O2       0.27193    0.69277    0.20227   1.00
O2       0.42083    0.72807    0.20227   1.00
O2       0.30723    0.57917    0.20227   1.00
O2       0.24633    0.73827    0.22817   1.00
O2       0.33797    0.78693    0.26743   1.00
O2       0.20747    0.64743    0.26703   1.00
O2       0.49193    0.75367    0.22817   1.00
O2       0.43997    0.79253    0.26703   1.00
O2       0.44897    0.66203    0.26743   1.00
O2       0.26173    0.50807    0.22817   1.00
O2       0.21307    0.55103    0.26743   1.00
O2       0.35257    0.56003    0.26703   1.00
C1       0.24723    0.72687    0.20997   1.00
C1       0.47963    0.75277    0.20997   1.00
C1       0.27313    0.52037    0.20997   1.00
C1       0.39997    0.81063    0.27303   1.00
C1       0.18937    0.58933    0.27303   1.00
C1       0.41067    0.60003    0.27303   1.00
O1       0.33333    0.66667    0.59197   1.00
Zn      0.33333    0.66667    0.62107   1.00
Zn      0.37620    0.61510    0.58310   1.00
Zn      0.38490    0.76110    0.58310   1.00
Zn      0.23890    0.62380    0.58310   1.00
O2       0.35943    0.60527    0.63107   1.00
O2       0.39473    0.75417    0.63107   1.00
O2       0.24583    0.64057    0.63107   1.00
O2       0.40493    0.57967    0.60517   1.00
O2       0.45360    0.67130    0.56590   1.00
O2       0.31410    0.54080    0.56630   1.00
O2       0.42033    0.82527    0.60517   1.00
O2       0.45920    0.77330    0.56630   1.00
O2       0.32870    0.78230    0.56590   1.00
O2       0.17473    0.59507    0.60517   1.00
O2       0.21770    0.54640    0.56590   1.00
O2       0.22670    0.68590    0.56630   1.00
C1       0.39353    0.58057    0.62337   1.00
C1       0.41943    0.81297    0.62337   1.00
C1       0.18703    0.60647    0.62337   1.00
C1       0.47730    0.73330    0.56030   1.00
C1       0.25600    0.52270    0.56030   1.00
C1       0.26670    0.74400    0.56030   1.00
O1       0.33333    0.66667    0.09197   1.00
Zn      0.33333    0.66667    0.12107   1.00
Zn      0.38490    0.62380    0.08310   1.00
Zn      0.23890    0.61510    0.08310   1.00
Zn      0.37620    0.76110    0.08310   1.00
O2       0.39473    0.64057    0.13107   1.00
O2       0.24583    0.60527    0.13107   1.00
O2       0.35943    0.75417    0.13107   1.00
O2       0.42033    0.59507    0.10517   1.00
O2       0.32870    0.54640    0.06590   1.00
O2       0.45920    0.68590    0.06630   1.00
O2       0.17473    0.57967    0.10517   1.00
O2       0.22670    0.54080    0.06630   1.00
O2       0.21770    0.67130    0.06590   1.00
O2       0.40493    0.82527    0.10517   1.00
O2       0.45360    0.78230    0.06590   1.00
O2       0.31410    0.77330    0.06630   1.00
C1       0.41943    0.60647    0.12337   1.00
C1       0.18703    0.58057    0.12337   1.00
C1       0.39353    0.81297    0.12337   1.00
C1       0.26670    0.52270    0.06030   1.00
C1       0.47730    0.74400    0.06030   1.00
C1       0.25600    0.73330    0.06030   1.00
O1       0.33333    0.66667    0.74137   1.00
Zn      0.33333    0.66667    0.71227   1.00
Zn      0.29047    0.71823    0.75023   1.00
Zn      0.28177    0.57223    0.75023   1.00
Zn      0.42777    0.70953    0.75023   1.00
O2       0.30723    0.72807    0.70227   1.00
O2       0.27193    0.57917    0.70227   1.00
O2       0.42083    0.69277    0.70227   1.00
O2       0.26173    0.75367    0.72817   1.00
O2       0.21307    0.66203    0.76743   1.00
O2       0.35257    0.79253    0.76703   1.00
O2       0.24633    0.50807    0.72817   1.00
O2       0.20747    0.56003    0.76703   1.00
O2       0.33797    0.55103    0.76743   1.00
O2       0.49193    0.73827    0.72817   1.00
O2       0.44897    0.78693    0.76743   1.00
O2       0.43997    0.64743    0.76703   1.00
C1       0.27313    0.75277    0.70997   1.00
C1       0.24723    0.52037    0.70997   1.00
C1       0.47963    0.72687    0.70997   1.00
C1       0.18937    0.60003    0.77303   1.00
C1       0.41067    0.81063    0.77303   1.00
C1       0.39997    0.58933    0.77303   1.00
C2       0.79939    0.54456    0.45222   1.00
C3       0.82161    0.60973    0.44802   1.00
H1       0.82130    0.62228    0.43461   1.00
C3       0.79852    0.52708    0.47197   1.00
H1       0.78223    0.48160    0.47528   1.00
C4       0.84486    0.65938    0.46275   1.00
C5       0.86998    0.73396    0.45797   1.00
H2       0.83203    0.74174    0.45780   1.00
H2       0.89177    0.74497    0.44494   1.00
H2       0.90202    0.76218    0.46812   1.00
C4       0.82120    0.57512    0.48727   1.00
C5       0.81849    0.55425    0.50983   1.00
H2       0.86157    0.55944    0.51372   1.00
H2       0.78333    0.50770    0.51159   1.00
H2       0.80874    0.58303    0.51819   1.00
C6       0.84364    0.64206    0.48279   1.00
C6       0.86698    0.69384    0.49916   1.00
C4       0.82214    0.71113    0.50798   1.00
C5       0.74860    0.67202    0.50288   1.00
H2       0.73950    0.69353    0.49174   1.00
H2       0.72242    0.67081    0.51438   1.00
H2       0.73659    0.62622    0.49915   1.00
C4       0.93512    0.72494    0.50488   1.00
C5       0.98704    0.70872    0.49547   1.00
H2       0.98614    0.67122    0.50263   1.00
H2       0.03179    0.74795    0.49639   1.00
H2       0.97564    0.69640    0.48152   1.00
C3       0.84648    0.76199    0.52254   1.00
H1       0.81628    0.77300    0.52873   1.00
C3       0.95674    0.77850    0.51976   1.00
H1       0.00219    0.80134    0.52374   1.00
C2       0.91370    0.79640    0.52810   1.00
C2       0.45544    0.25483    0.45222   1.00
C3       0.39027    0.21188    0.44802   1.00
H1       0.37772    0.19902    0.43461   1.00
C3       0.47292    0.27144    0.47197   1.00
H1       0.51840    0.30063    0.47528   1.00
C4       0.34062    0.18548    0.46275   1.00
C5       0.26604    0.13602    0.45797   1.00
H2       0.25826    0.09029    0.45780   1.00
H2       0.25503    0.14680    0.44494   1.00
H2       0.23782    0.13984    0.46812   1.00
C4       0.42488    0.24608    0.48727   1.00
C5       0.44575    0.26424    0.50983   1.00
H2       0.44056    0.30213    0.51372   1.00
H2       0.49230    0.27563    0.51159   1.00
H2       0.41697    0.22571    0.51819   1.00
C6       0.35794    0.20158    0.48279   1.00
C6       0.30616    0.17314    0.49916   1.00
C4       0.28887    0.11101    0.50798   1.00
C5       0.32798    0.07658    0.50288   1.00
H2       0.30647    0.04597    0.49174   1.00
H2       0.32919    0.05161    0.51438   1.00
H2       0.37378    0.11037    0.49915   1.00
C4       0.27506    0.21018    0.50488   1.00
C5       0.29128    0.27832    0.49547   1.00
H2       0.32878    0.31492    0.50263   1.00
H2       0.25205    0.28384    0.49639   1.00
H2       0.30360    0.27924    0.48152   1.00
C3       0.23801    0.08449    0.52254   1.00
H1       0.22700    0.04328    0.52873   1.00
C3       0.22150    0.17824    0.51976   1.00
H1       0.19866    0.20085    0.52374   1.00
C2       0.20360    0.11730    0.52810   1.00
C2       0.74517    0.20061    0.45222   1.00
C3       0.78812    0.17839    0.44802   1.00
H1       0.80098    0.17870    0.43461   1.00
C3       0.72856    0.20148    0.47197   1.00
H1       0.69937    0.21777    0.47528   1.00
C4       0.81452    0.15514    0.46275   1.00
C5       0.86398    0.13002    0.45797   1.00
H2       0.90971    0.16797    0.45780   1.00
H2       0.85320    0.10823    0.44494   1.00
H2       0.86016    0.09798    0.46812   1.00
C4       0.75392    0.17880    0.48727   1.00
C5       0.73576    0.18151    0.50983   1.00
H2       0.69787    0.13843    0.51372   1.00
H2       0.72437    0.21667    0.51159   1.00
H2       0.77429    0.19126    0.51819   1.00
C6       0.79842    0.15636    0.48279   1.00
C6       0.82686    0.13302    0.49916   1.00
C4       0.88899    0.17786    0.50798   1.00
C5       0.92342    0.25140    0.50288   1.00
H2       0.95403    0.26050    0.49174   1.00
H2       0.94839    0.27758    0.51438   1.00
H2       0.88963    0.26341    0.49915   1.00
C4       0.78982    0.06488    0.50488   1.00
C5       0.72168    0.01296    0.49547   1.00
H2       0.68508    0.01386    0.50263   1.00
H2       0.71616    -0.03179   0.49639   1.00
H2       0.72076    0.02436    0.48152   1.00
C3       0.91551    0.15352    0.52254   1.00
H1       0.95672    0.18372    0.52873   1.00
C3       0.82176    0.04326    0.51976   1.00
H1       0.79915    -0.00219   0.52374   1.00
C2       0.88270    0.08630    0.52810   1.00
C2       0.54456    0.79939    0.04778   1.00
C3       0.60973    0.82161    0.05198   1.00
H1       0.62228    0.82130    0.06539   1.00
C3       0.52708    0.79852    0.02803   1.00
H1       0.48160    0.78223    0.02472   1.00
C4       0.65938    0.84486    0.03725   1.00
C5       0.73396    0.86998    0.04203   1.00
H2       0.74174    0.83203    0.04220   1.00
H2       0.74497    0.89177    0.05506   1.00
H2       0.76218    0.90202    0.03188   1.00
C4       0.57512    0.82120    0.01273   1.00
C5       0.55425    0.81849    0.99017   1.00
H2       0.55944    0.86157    0.98628   1.00
H2       0.50770    0.78333    0.98841   1.00
H2       0.58303    0.80874    0.98181   1.00
C6       0.64206    0.84364    0.01721   1.00
C6       0.69384    0.86698    0.00084   1.00
C4       0.71113    0.82214    0.99202   1.00
C5       0.67202    0.74860    0.99712   1.00
H2       0.69353    0.73950    0.00826   1.00
H2       0.67081    0.72242    0.98562   1.00
H2       0.62622    0.73659    0.00085   1.00
C4       0.72494    0.93512    0.99512   1.00
C5       0.70872    0.98704    0.00453   1.00
H2       0.67122    0.98614    0.99737   1.00
H2       0.74795    0.03179    0.00361   1.00
H2       0.69640    0.97564    0.01848   1.00
C3       0.76199    0.84648    0.97746   1.00
H1       0.77300    0.81628    0.97127   1.00
C3       0.77850    0.95674    0.98024   1.00
H1       0.80134    0.00219    0.97626   1.00
C2       0.79640    0.91370    0.97190   1.00
C2       0.25483    0.45544    0.04778   1.00
C3       0.21188    0.39027    0.05198   1.00
H1       0.19902    0.37772    0.06539   1.00
C3       0.27144    0.47292    0.02803   1.00
H1       0.30063    0.51840    0.02472   1.00
C4       0.18548    0.34062    0.03725   1.00
C5       0.13602    0.26604    0.04203   1.00
H2       0.09029    0.25826    0.04220   1.00
H2       0.14680    0.25503    0.05506   1.00
H2       0.13984    0.23782    0.03188   1.00
C4       0.24608    0.42488    0.01273   1.00
C5       0.26424    0.44575    0.99017   1.00
H2       0.30213    0.44056    0.98628   1.00
H2       0.27563    0.49230    0.98841   1.00
H2       0.22571    0.41697    0.98181   1.00
C6       0.20158    0.35794    0.01721   1.00
C6       0.17314    0.30616    0.00084   1.00
C4       0.11101    0.28887    0.99202   1.00
C5       0.07658    0.32798    0.99712   1.00
H2       0.04597    0.30647    0.00826   1.00
H2       0.05161    0.32919    0.98562   1.00
H2       0.11037    0.37378    0.00085   1.00
C4       0.21018    0.27506    0.99512   1.00
C5       0.27832    0.29128    0.00453   1.00
H2       0.31492    0.32878    0.99737   1.00
H2       0.28384    0.25205    0.00361   1.00
H2       0.27924    0.30360    0.01848   1.00
C3       0.08449    0.23801    0.97746   1.00
H1       0.04328    0.22700    0.97127   1.00
C3       0.17824    0.22150    0.98024   1.00
H1       0.20085    0.19866    0.97626   1.00
C2       0.11730    0.20360    0.97190   1.00
C2       0.20061    0.74517    0.04778   1.00
C3       0.17839    0.78812    0.05198   1.00
H1       0.17870    0.80098    0.06539   1.00
C3       0.20148    0.72856    0.02803   1.00
H1       0.21777    0.69937    0.02472   1.00
C4       0.15514    0.81452    0.03725   1.00
C5       0.13002    0.86398    0.04203   1.00
H2       0.16797    0.90971    0.04220   1.00
H2       0.10823    0.85320    0.05506   1.00
H2       0.09798    0.86016    0.03188   1.00
C4       0.17880    0.75392    0.01273   1.00
C5       0.18151    0.73576    0.99017   1.00
H2       0.13843    0.69787    0.98628   1.00
H2       0.21667    0.72437    0.98841   1.00
H2       0.19126    0.77429    0.98181   1.00
C6       0.15636    0.79842    0.01721   1.00
C6       0.13302    0.82686    0.00084   1.00
C4       0.17786    0.88899    0.99202   1.00
C5       0.25140    0.92342    0.99712   1.00
H2       0.26050    0.95403    0.00826   1.00
H2       0.27758    0.94839    0.98562   1.00
H2       0.26341    0.88963    0.00085   1.00
C4       0.06488    0.78982    0.99512   1.00
C5       0.01296    0.72168    0.00453   1.00
H2       0.01386    0.68508    0.99737   1.00
H2       -0.03179   0.71616    0.00361   1.00
H2       0.02436    0.72076    0.01848   1.00
C3       0.15352    0.91551    0.97746   1.00
H1       0.18372    0.95672    0.97127   1.00
C3       0.04326    0.82176    0.98024   1.00
H1       -0.00219   0.79915    0.97626   1.00
C2       0.08630    0.88270    0.97190   1.00
C2       0.20061    0.45544    0.54778   1.00
C3       0.17839    0.39027    0.55198   1.00
H1       0.17870    0.37772    0.56539   1.00
C3       0.20148    0.47292    0.52803   1.00
H1       0.21777    0.51840    0.52472   1.00
C4       0.15514    0.34062    0.53725   1.00
C5       0.13002    0.26604    0.54203   1.00
H2       0.16797    0.25826    0.54220   1.00
H2       0.10823    0.25503    0.55506   1.00
H2       0.09798    0.23782    0.53188   1.00
C4       0.17880    0.42488    0.51273   1.00
C5       0.18151    0.44575    0.49017   1.00
H2       0.13843    0.44056    0.48628   1.00
H2       0.21667    0.49230    0.48841   1.00
H2       0.19126    0.41697    0.48181   1.00
C6       0.15636    0.35794    0.51721   1.00
C6       0.13302    0.30616    0.50084   1.00
C4       0.17786    0.28887    0.49202   1.00
C5       0.25140    0.32798    0.49712   1.00
H2       0.26050    0.30647    0.50826   1.00
H2       0.27758    0.32919    0.48562   1.00
H2       0.26341    0.37378    0.50085   1.00
C4       0.06488    0.27506    0.49512   1.00
C5       0.01296    0.29128    0.50453   1.00
H2       0.01386    0.32878    0.49737   1.00
H2       -0.03179   0.25205    0.50361   1.00
H2       0.02436    0.30360    0.51848   1.00
C3       0.15352    0.23801    0.47746   1.00
H1       0.18372    0.22700    0.47127   1.00
C3       0.04326    0.22150    0.48024   1.00
H1       -0.00219   0.19866    0.47626   1.00
C2       0.08630    0.20360    0.47190   1.00
C2       0.54456    0.74517    0.54778   1.00
C3       0.60973    0.78812    0.55198   1.00
H1       0.62228    0.80098    0.56539   1.00
C3       0.52708    0.72856    0.52803   1.00
H1       0.48160    0.69937    0.52472   1.00
C4       0.65938    0.81452    0.53725   1.00
C5       0.73396    0.86398    0.54203   1.00
H2       0.74174    0.90971    0.54220   1.00
H2       0.74497    0.85320    0.55506   1.00
H2       0.76218    0.86016    0.53188   1.00
C4       0.57512    0.75392    0.51273   1.00
C5       0.55425    0.73576    0.49017   1.00
H2       0.55944    0.69787    0.48628   1.00
H2       0.50770    0.72437    0.48841   1.00
H2       0.58303    0.77429    0.48181   1.00
C6       0.64206    0.79842    0.51721   1.00
C6       0.69384    0.82686    0.50084   1.00
C4       0.71113    0.88899    0.49202   1.00
C5       0.67202    0.92342    0.49712   1.00
H2       0.69353    0.95403    0.50826   1.00
H2       0.67081    0.94839    0.48562   1.00
H2       0.62622    0.88963    0.50085   1.00
C4       0.72494    0.78982    0.49512   1.00
C5       0.70872    0.72168    0.50453   1.00
H2       0.67122    0.68508    0.49737   1.00
H2       0.74795    0.71616    0.50361   1.00
H2       0.69640    0.72076    0.51848   1.00
C3       0.76199    0.91551    0.47746   1.00
H1       0.77300    0.95672    0.47127   1.00
C3       0.77850    0.82176    0.48024   1.00
H1       0.80134    0.79915    0.47626   1.00
C2       0.79640    0.88270    0.47190   1.00
C2       0.25483    0.79939    0.54778   1.00
C3       0.21188    0.82161    0.55198   1.00
H1       0.19902    0.82130    0.56539   1.00
C3       0.27144    0.79852    0.52803   1.00
H1       0.30063    0.78223    0.52472   1.00
C4       0.18548    0.84486    0.53725   1.00
C5       0.13602    0.86998    0.54203   1.00
H2       0.09029    0.83203    0.54220   1.00
H2       0.14680    0.89177    0.55506   1.00
H2       0.13984    0.90202    0.53188   1.00
C4       0.24608    0.82120    0.51273   1.00
C5       0.26424    0.81849    0.49017   1.00
H2       0.30213    0.86157    0.48628   1.00
H2       0.27563    0.78333    0.48841   1.00
H2       0.22571    0.80874    0.48181   1.00
C6       0.20158    0.84364    0.51721   1.00
C6       0.17314    0.86698    0.50084   1.00
C4       0.11101    0.82214    0.49202   1.00
C5       0.07658    0.74860    0.49712   1.00
H2       0.04597    0.73950    0.50826   1.00
H2       0.05161    0.72242    0.48562   1.00
H2       0.11037    0.73659    0.50085   1.00
C4       0.21018    0.93512    0.49512   1.00
C5       0.27832    0.98704    0.50453   1.00
H2       0.31492    0.98614    0.49737   1.00
H2       0.28384    0.03179    0.50361   1.00
H2       0.27924    0.97564    0.51848   1.00
C3       0.08449    0.84648    0.47746   1.00
H1       0.04328    0.81628    0.47127   1.00
C3       0.17824    0.95674    0.48024   1.00
H1       0.20085    0.00219    0.47626   1.00
C2       0.11730    0.91370    0.47190   1.00
C2       0.45544    0.20061    0.95222   1.00
C3       0.39027    0.17839    0.94802   1.00
H1       0.37772    0.17870    0.93461   1.00
C3       0.47292    0.20148    0.97197   1.00
H1       0.51840    0.21777    0.97528   1.00
C4       0.34062    0.15514    0.96275   1.00
C5       0.26604    0.13002    0.95797   1.00
H2       0.25826    0.16797    0.95780   1.00
H2       0.25503    0.10823    0.94494   1.00
H2       0.23782    0.09798    0.96812   1.00
C4       0.42488    0.17880    0.98727   1.00
C5       0.44575    0.18151    0.00983   1.00
H2       0.44056    0.13843    0.01372   1.00
H2       0.49230    0.21667    0.01159   1.00
H2       0.41697    0.19126    0.01819   1.00
C6       0.35794    0.15636    0.98279   1.00
C6       0.30616    0.13302    0.99916   1.00
C4       0.28887    0.17786    0.00798   1.00
C5       0.32798    0.25140    0.00288   1.00
H2       0.30647    0.26050    0.99174   1.00
H2       0.32919    0.27758    0.01438   1.00
H2       0.37378    0.26341    0.99915   1.00
C4       0.27506    0.06488    0.00488   1.00
C5       0.29128    0.01296    0.99547   1.00
H2       0.32878    0.01386    0.00263   1.00
H2       0.25205    -0.03179   0.99639   1.00
H2       0.30360    0.02436    0.98152   1.00
C3       0.23801    0.15352    0.02254   1.00
H1       0.22700    0.18372    0.02873   1.00
C3       0.22150    0.04326    0.01976   1.00
H1       0.19866    -0.00219   0.02374   1.00
C2       0.20360    0.08630    0.02810   1.00
C2       0.74517    0.54456    0.95222   1.00
C3       0.78812    0.60973    0.94802   1.00
H1       0.80098    0.62228    0.93461   1.00
C3       0.72856    0.52708    0.97197   1.00
H1       0.69937    0.48160    0.97528   1.00
C4       0.81452    0.65938    0.96275   1.00
C5       0.86398    0.73396    0.95797   1.00
H2       0.90971    0.74174    0.95780   1.00
H2       0.85320    0.74497    0.94494   1.00
H2       0.86016    0.76218    0.96812   1.00
C4       0.75392    0.57512    0.98727   1.00
C5       0.73576    0.55425    0.00983   1.00
H2       0.69787    0.55944    0.01372   1.00
H2       0.72437    0.50770    0.01159   1.00
H2       0.77429    0.58303    0.01819   1.00
C6       0.79842    0.64206    0.98279   1.00
C6       0.82686    0.69384    0.99916   1.00
C4       0.88899    0.71113    0.00798   1.00
C5       0.92342    0.67202    0.00288   1.00
H2       0.95403    0.69353    0.99174   1.00
H2       0.94839    0.67081    0.01438   1.00
H2       0.88963    0.62622    0.99915   1.00
C4       0.78982    0.72494    0.00488   1.00
C5       0.72168    0.70872    0.99547   1.00
H2       0.68508    0.67122    0.00263   1.00
H2       0.71616    0.74795    0.99639   1.00
H2       0.72076    0.69640    0.98152   1.00
C3       0.91551    0.76199    0.02254   1.00
H1       0.95672    0.77300    0.02873   1.00
C3       0.82176    0.77850    0.01976   1.00
H1       0.79915    0.80134    0.02374   1.00
C2       0.88270    0.79640    0.02810   1.00
C2       0.79939    0.25483    0.95222   1.00
C3       0.82161    0.21188    0.94802   1.00
H1       0.82130    0.19902    0.93461   1.00
C3       0.79852    0.27144    0.97197   1.00
H1       0.78223    0.30063    0.97528   1.00
C4       0.84486    0.18548    0.96275   1.00
C5       0.86998    0.13602    0.95797   1.00
H2       0.83203    0.09029    0.95780   1.00
H2       0.89177    0.14680    0.94494   1.00
H2       0.90202    0.13984    0.96812   1.00
C4       0.82120    0.24608    0.98727   1.00
C5       0.81849    0.26424    0.00983   1.00
H2       0.86157    0.30213    0.01372   1.00
H2       0.78333    0.27563    0.01159   1.00
H2       0.80874    0.22571    0.01819   1.00
C6       0.84364    0.20158    0.98279   1.00
C6       0.86698    0.17314    0.99916   1.00
C4       0.82214    0.11101    0.00798   1.00
C5       0.74860    0.07658    0.00288   1.00
H2       0.73950    0.04597    0.99174   1.00
H2       0.72242    0.05161    0.01438   1.00
H2       0.73659    0.11037    0.99915   1.00
C4       0.93512    0.21018    0.00488   1.00
C5       0.98704    0.27832    0.99547   1.00
H2       0.98614    0.31492    0.00263   1.00
H2       0.03179    0.28384    0.99639   1.00
H2       0.97564    0.27924    0.98152   1.00
C3       0.84648    0.08449    0.02254   1.00
H1       0.81628    0.04328    0.02873   1.00
C3       0.95674    0.17824    0.01976   1.00
H1       0.00219    0.20085    0.02374   1.00
C2       0.91370    0.11730    0.02810   1.00
C2       0.46606    0.87789    0.78555   1.00
C3       0.48828    0.94306    0.78135   1.00
H1       0.48797    0.95561    0.76794   1.00
C3       0.46519    0.86041    0.80530   1.00
H1       0.44890    0.81493    0.80861   1.00
C4       0.51153    0.99271    0.79608   1.00
C5       0.53665    0.06729    0.79130   1.00
H2       0.49870    0.07507    0.79113   1.00
H2       0.55844    0.07830    0.77827   1.00
H2       0.56869    0.09551    0.80145   1.00
C4       0.48787    0.90845    0.82060   1.00
C5       0.48516    0.88758    0.84316   1.00
H2       0.52824    0.89277    0.84705   1.00
H2       0.45000    0.84103    0.84492   1.00
H2       0.47541    0.91636    0.85152   1.00
C6       0.51031    0.97539    0.81612   1.00
C6       0.53365    0.02717    0.83249   1.00
C4       0.48881    0.04446    0.84131   1.00
C5       0.41527    0.00535    0.83621   1.00
H2       0.40617    0.02686    0.82507   1.00
H2       0.38909    0.00414    0.84771   1.00
H2       0.40326    0.95955    0.83248   1.00
C4       0.60179    0.05827    0.83821   1.00
C5       0.65371    0.04205    0.82880   1.00
H2       0.65281    0.00455    0.83596   1.00
H2       0.69846    0.08128    0.82972   1.00
H2       0.64231    0.02973    0.81485   1.00
C3       0.51315    0.09532    0.85587   1.00
H1       0.48295    0.10633    0.86206   1.00
C3       0.62341    0.11183    0.85309   1.00
H1       0.66886    0.13467    0.85707   1.00
C2       0.58037    0.12973    0.86143   1.00
C2       0.12211    0.58816    0.78555   1.00
C3       0.05694    0.54521    0.78135   1.00
H1       0.04439    0.53235    0.76794   1.00
C3       0.13959    0.60477    0.80530   1.00
H1       0.18507    0.63396    0.80861   1.00
C4       0.00729    0.51881    0.79608   1.00
C5       0.93271    0.46935    0.79130   1.00
H2       0.92493    0.42362    0.79113   1.00
H2       0.92170    0.48013    0.77827   1.00
H2       0.90449    0.47317    0.80145   1.00
C4       0.09155    0.57941    0.82060   1.00
C5       0.11242    0.59757    0.84316   1.00
H2       0.10723    0.63546    0.84705   1.00
H2       0.15897    0.60896    0.84492   1.00
H2       0.08364    0.55904    0.85152   1.00
C6       0.02461    0.53491    0.81612   1.00
C6       0.97283    0.50647    0.83249   1.00
C4       0.95554    0.44434    0.84131   1.00
C5       0.99465    0.40991    0.83621   1.00
H2       0.97314    0.37930    0.82507   1.00
H2       0.99586    0.38494    0.84771   1.00
H2       0.04045    0.44370    0.83248   1.00
C4       0.94173    0.54351    0.83821   1.00
C5       0.95795    0.61165    0.82880   1.00
H2       0.99545    0.64825    0.83596   1.00
H2       0.91872    0.61717    0.82972   1.00
H2       0.97027    0.61257    0.81485   1.00
C3       0.90468    0.41782    0.85587   1.00
H1       0.89367    0.37661    0.86206   1.00
C3       0.88817    0.51157    0.85309   1.00
H1       0.86533    0.53418    0.85707   1.00
C2       0.87027    0.45063    0.86143   1.00
C2       0.41184    0.53394    0.78555   1.00
C3       0.45479    0.51172    0.78135   1.00
H1       0.46765    0.51203    0.76794   1.00
C3       0.39523    0.53481    0.80530   1.00
H1       0.36604    0.55110    0.80861   1.00
C4       0.48119    0.48847    0.79608   1.00
C5       0.53065    0.46335    0.79130   1.00
H2       0.57638    0.50130    0.79113   1.00
H2       0.51987    0.44156    0.77827   1.00
H2       0.52683    0.43131    0.80145   1.00
C4       0.42059    0.51213    0.82060   1.00
C5       0.40243    0.51484    0.84316   1.00
H2       0.36454    0.47176    0.84705   1.00
H2       0.39104    0.55000    0.84492   1.00
H2       0.44096    0.52459    0.85152   1.00
C6       0.46509    0.48969    0.81612   1.00
C6       0.49353    0.46635    0.83249   1.00
C4       0.55566    0.51119    0.84131   1.00
C5       0.59009    0.58473    0.83621   1.00
H2       0.62070    0.59383    0.82507   1.00
H2       0.61506    0.61091    0.84771   1.00
H2       0.55630    0.59674    0.83248   1.00
C4       0.45649    0.39821    0.83821   1.00
C5       0.38835    0.34629    0.82880   1.00
H2       0.35175    0.34719    0.83596   1.00
H2       0.38283    0.30154    0.82972   1.00
H2       0.38743    0.35769    0.81485   1.00
C3       0.58218    0.48685    0.85587   1.00
H1       0.62339    0.51705    0.86206   1.00
C3       0.48843    0.37659    0.85309   1.00
H1       0.46582    0.33114    0.85707   1.00
C2       0.54937    0.41963    0.86143   1.00
C2       0.21123    0.13272    0.38111   1.00
C3       0.27640    0.15494    0.38531   1.00
H1       0.28895    0.15463    0.39872   1.00
C3       0.19375    0.13185    0.36136   1.00
H1       0.14827    0.11556    0.35805   1.00
C4       0.32605    0.17819    0.37058   1.00
C5       0.40063    0.20331    0.37536   1.00
H2       0.40841    0.16536    0.37553   1.00
H2       0.41164    0.22510    0.38839   1.00
H2       0.42885    0.23535    0.36521   1.00
C4       0.24179    0.15453    0.34606   1.00
C5       0.22092    0.15182    0.32350   1.00
H2       0.22611    0.19490    0.31961   1.00
H2       0.17437    0.11666    0.32174   1.00
H2       0.24970    0.14207    0.31514   1.00
C6       0.30873    0.17697    0.35054   1.00
C6       0.36051    0.20031    0.33417   1.00
C4       0.37780    0.15547    0.32535   1.00
C5       0.33869    0.08193    0.33045   1.00
H2       0.36020    0.07283    0.34159   1.00
H2       0.33748    0.05575    0.31895   1.00
H2       0.29289    0.06992    0.33418   1.00
C4       0.39161    0.26845    0.32845   1.00
C5       0.37539    0.32037    0.33786   1.00
H2       0.33789    0.31947    0.33070   1.00
H2       0.41462    0.36512    0.33694   1.00
H2       0.36307    0.30897    0.35181   1.00
C3       0.42866    0.17981    0.31079   1.00
H1       0.43967    0.14961    0.30460   1.00
C3       0.44517    0.29007    0.31357   1.00
H1       0.46801    0.33552    0.30959   1.00
C2       0.46307    0.24703    0.30523   1.00
C2       0.92150    0.78877    0.38111   1.00
C3       0.87855    0.72360    0.38531   1.00
H1       0.86569    0.71105    0.39872   1.00
C3       0.93811    0.80625    0.36136   1.00
H1       0.96730    0.85173    0.35805   1.00
C4       0.85215    0.67395    0.37058   1.00
C5       0.80269    0.59937    0.37536   1.00
H2       0.75696    0.59159    0.37553   1.00
H2       0.81347    0.58836    0.38839   1.00
H2       0.80651    0.57115    0.36521   1.00
C4       0.91275    0.75821    0.34606   1.00
C5       0.93091    0.77908    0.32350   1.00
H2       0.96880    0.77389    0.31961   1.00
H2       0.94230    0.82563    0.32174   1.00
H2       0.89238    0.75030    0.31514   1.00
C6       0.86825    0.69127    0.35054   1.00
C6       0.83981    0.63949    0.33417   1.00
C4       0.77768    0.62220    0.32535   1.00
C5       0.74325    0.66131    0.33045   1.00
H2       0.71264    0.63980    0.34159   1.00
H2       0.71828    0.66252    0.31895   1.00
H2       0.77704    0.70711    0.33418   1.00
C4       0.87685    0.60839    0.32845   1.00
C5       0.94499    0.62461    0.33786   1.00
H2       0.98159    0.66211    0.33070   1.00
H2       0.95051    0.58538    0.33694   1.00
H2       0.94591    0.63693    0.35181   1.00
C3       0.75116    0.57134    0.31079   1.00
H1       0.70995    0.56033    0.30460   1.00
C3       0.84491    0.55483    0.31357   1.00
H1       0.86752    0.53199    0.30959   1.00
C2       0.78397    0.53693    0.30523   1.00
C2       0.86728    0.07850    0.38111   1.00
C3       0.84506    0.12145    0.38531   1.00
H1       0.84537    0.13431    0.39872   1.00
C3       0.86815    0.06189    0.36136   1.00
H1       0.88444    0.03270    0.35805   1.00
C4       0.82181    0.14785    0.37058   1.00
C5       0.79669    0.19731    0.37536   1.00
H2       0.83464    0.24304    0.37553   1.00
H2       0.77490    0.18653    0.38839   1.00
H2       0.76465    0.19349    0.36521   1.00
C4       0.84547    0.08725    0.34606   1.00
C5       0.84818    0.06909    0.32350   1.00
H2       0.80510    0.03120    0.31961   1.00
H2       0.88334    0.05770    0.32174   1.00
H2       0.85793    0.10762    0.31514   1.00
C6       0.82303    0.13175    0.35054   1.00
C6       0.79969    0.16019    0.33417   1.00
C4       0.84453    0.22232    0.32535   1.00
C5       0.91807    0.25675    0.33045   1.00
H2       0.92717    0.28736    0.34159   1.00
H2       0.94425    0.28172    0.31895   1.00
H2       0.93008    0.22296    0.33418   1.00
C4       0.73155    0.12315    0.32845   1.00
C5       0.67963    0.05501    0.33786   1.00
H2       0.68053    0.01841    0.33070   1.00
H2       0.63488    0.04949    0.33694   1.00
H2       0.69103    0.05409    0.35181   1.00
C3       0.82019    0.24884    0.31079   1.00
H1       0.85039    0.29005    0.30460   1.00
C3       0.70993    0.15509    0.31357   1.00
H1       0.66448    0.13248    0.30959   1.00
C2       0.75297    0.21603    0.30523   1.00
C2       0.86728    0.78877    0.88111   1.00
C3       0.84506    0.72360    0.88531   1.00
H1       0.84537    0.71105    0.89872   1.00
C3       0.86815    0.80625    0.86136   1.00
H1       0.88444    0.85173    0.85805   1.00
C4       0.82181    0.67395    0.87058   1.00
C5       0.79669    0.59937    0.87536   1.00
H2       0.83464    0.59159    0.87553   1.00
H2       0.77490    0.58836    0.88839   1.00
H2       0.76465    0.57115    0.86521   1.00
C4       0.84547    0.75821    0.84606   1.00
C5       0.84818    0.77908    0.82350   1.00
H2       0.80510    0.77389    0.81961   1.00
H2       0.88334    0.82563    0.82174   1.00
H2       0.85793    0.75030    0.81514   1.00
C6       0.82303    0.69127    0.85054   1.00
C6       0.79969    0.63949    0.83417   1.00
C4       0.84453    0.62220    0.82535   1.00
C5       0.91807    0.66131    0.83045   1.00
H2       0.92717    0.63980    0.84159   1.00
H2       0.94425    0.66252    0.81895   1.00
H2       0.93008    0.70711    0.83418   1.00
C4       0.73155    0.60839    0.82845   1.00
C5       0.67963    0.62461    0.83786   1.00
H2       0.68053    0.66211    0.83070   1.00
H2       0.63488    0.58538    0.83694   1.00
H2       0.69103    0.63693    0.85181   1.00
C3       0.82019    0.57134    0.81079   1.00
H1       0.85039    0.56033    0.80460   1.00
C3       0.70993    0.55483    0.81357   1.00
H1       0.66448    0.53199    0.80959   1.00
C2       0.75297    0.53693    0.80523   1.00
C2       0.21123    0.07850    0.88111   1.00
C3       0.27640    0.12145    0.88531   1.00
H1       0.28895    0.13431    0.89872   1.00
C3       0.19375    0.06189    0.86136   1.00
H1       0.14827    0.03270    0.85805   1.00
C4       0.32605    0.14785    0.87058   1.00
C5       0.40063    0.19731    0.87536   1.00
H2       0.40841    0.24304    0.87553   1.00
H2       0.41164    0.18653    0.88839   1.00
H2       0.42885    0.19349    0.86521   1.00
C4       0.24179    0.08725    0.84606   1.00
C5       0.22092    0.06909    0.82350   1.00
H2       0.22611    0.03120    0.81961   1.00
H2       0.17437    0.05770    0.82174   1.00
H2       0.24970    0.10762    0.81514   1.00
C6       0.30873    0.13175    0.85054   1.00
C6       0.36051    0.16019    0.83417   1.00
C4       0.37780    0.22232    0.82535   1.00
C5       0.33869    0.25675    0.83045   1.00
H2       0.36020    0.28736    0.84159   1.00
H2       0.33748    0.28172    0.81895   1.00
H2       0.29289    0.22296    0.83418   1.00
C4       0.39161    0.12315    0.82845   1.00
C5       0.37539    0.05501    0.83786   1.00
H2       0.33789    0.01841    0.83070   1.00
H2       0.41462    0.04949    0.83694   1.00
H2       0.36307    0.05409    0.85181   1.00
C3       0.42866    0.24884    0.81079   1.00
H1       0.43967    0.29005    0.80460   1.00
C3       0.44517    0.15509    0.81357   1.00
H1       0.46801    0.13248    0.80959   1.00
C2       0.46307    0.21603    0.80523   1.00
C2       0.92150    0.13272    0.88111   1.00
C3       0.87855    0.15494    0.88531   1.00
H1       0.86569    0.15463    0.89872   1.00
C3       0.93811    0.13185    0.86136   1.00
H1       0.96730    0.11556    0.85805   1.00
C4       0.85215    0.17819    0.87058   1.00
C5       0.80269    0.20331    0.87536   1.00
H2       0.75696    0.16536    0.87553   1.00
H2       0.81347    0.22510    0.88839   1.00
H2       0.80651    0.23535    0.86521   1.00
C4       0.91275    0.15453    0.84606   1.00
C5       0.93091    0.15182    0.82350   1.00
H2       0.96880    0.19490    0.81961   1.00
H2       0.94230    0.11666    0.82174   1.00
H2       0.89238    0.14207    0.81514   1.00
C6       0.86825    0.17697    0.85054   1.00
C6       0.83981    0.20031    0.83417   1.00
C4       0.77768    0.15547    0.82535   1.00
C5       0.74325    0.08193    0.83045   1.00
H2       0.71264    0.07283    0.84159   1.00
H2       0.71828    0.05575    0.81895   1.00
H2       0.77704    0.06992    0.83418   1.00
C4       0.87685    0.26845    0.82845   1.00
C5       0.94499    0.32037    0.83786   1.00
H2       0.98159    0.31947    0.83070   1.00
H2       0.95051    0.36512    0.83694   1.00
H2       0.94591    0.30897    0.85181   1.00
C3       0.75116    0.17981    0.81079   1.00
H1       0.70995    0.14961    0.80460   1.00
C3       0.84491    0.29007    0.81357   1.00
H1       0.86752    0.33552    0.80959   1.00
C2       0.78397    0.24703    0.80523   1.00
C2       0.12211    0.53394    0.28555   1.00
C3       0.05694    0.51172    0.28135   1.00
H1       0.04439    0.51203    0.26794   1.00
C3       0.13959    0.53481    0.30530   1.00
H1       0.18507    0.55110    0.30861   1.00
C4       0.00729    0.48847    0.29608   1.00
C5       0.93271    0.46335    0.29130   1.00
H2       0.92493    0.50130    0.29113   1.00
H2       0.92170    0.44156    0.27827   1.00
H2       0.90449    0.43131    0.30145   1.00
C4       0.09155    0.51213    0.32060   1.00
C5       0.11242    0.51484    0.34316   1.00
H2       0.10723    0.47176    0.34705   1.00
H2       0.15897    0.55000    0.34492   1.00
H2       0.08364    0.52459    0.35152   1.00
C6       0.02461    0.48969    0.31612   1.00
C6       0.97283    0.46635    0.33249   1.00
C4       0.95554    0.51119    0.34131   1.00
C5       0.99465    0.58473    0.33621   1.00
H2       0.97314    0.59383    0.32507   1.00
H2       0.99586    0.61091    0.34771   1.00
H2       0.04045    0.59674    0.33248   1.00
C4       0.94173    0.39821    0.33821   1.00
C5       0.95795    0.34629    0.32880   1.00
H2       0.99545    0.34719    0.33596   1.00
H2       0.91872    0.30154    0.32972   1.00
H2       0.97027    0.35769    0.31485   1.00
C3       0.90468    0.48685    0.35587   1.00
H1       0.89367    0.51705    0.36206   1.00
C3       0.88817    0.37659    0.35309   1.00
H1       0.86533    0.33114    0.35707   1.00
C2       0.87027    0.41963    0.36143   1.00
C2       0.41184    0.87789    0.28555   1.00
C3       0.45479    0.94306    0.28135   1.00
H1       0.46765    0.95561    0.26794   1.00
C3       0.39523    0.86041    0.30530   1.00
H1       0.36604    0.81493    0.30861   1.00
C4       0.48119    0.99271    0.29608   1.00
C5       0.53065    0.06729    0.29130   1.00
H2       0.57638    0.07507    0.29113   1.00
H2       0.51987    0.07830    0.27827   1.00
H2       0.52683    0.09551    0.30145   1.00
C4       0.42059    0.90845    0.32060   1.00
C5       0.40243    0.88758    0.34316   1.00
H2       0.36454    0.89277    0.34705   1.00
H2       0.39104    0.84103    0.34492   1.00
H2       0.44096    0.91636    0.35152   1.00
C6       0.46509    0.97539    0.31612   1.00
C6       0.49353    0.02717    0.33249   1.00
C4       0.55566    0.04446    0.34131   1.00
C5       0.59009    0.00535    0.33621   1.00
H2       0.62070    0.02686    0.32507   1.00
H2       0.61506    0.00414    0.34771   1.00
H2       0.55630    0.95955    0.33248   1.00
C4       0.45649    0.05827    0.33821   1.00
C5       0.38835    0.04205    0.32880   1.00
H2       0.35175    0.00455    0.33596   1.00
H2       0.38283    0.08128    0.32972   1.00
H2       0.38743    0.02973    0.31485   1.00
C3       0.58218    0.09532    0.35587   1.00
H1       0.62339    0.10633    0.36206   1.00
C3       0.48843    0.11183    0.35309   1.00
H1       0.46582    0.13467    0.35707   1.00
C2       0.54937    0.12973    0.36143   1.00
C2       0.46606    0.58816    0.28555   1.00
C3       0.48828    0.54521    0.28135   1.00
H1       0.48797    0.53235    0.26794   1.00
C3       0.46519    0.60477    0.30530   1.00
H1       0.44890    0.63396    0.30861   1.00
C4       0.51153    0.51881    0.29608   1.00
C5       0.53665    0.46935    0.29130   1.00
H2       0.49870    0.42362    0.29113   1.00
H2       0.55844    0.48013    0.27827   1.00
H2       0.56869    0.47317    0.30145   1.00
C4       0.48787    0.57941    0.32060   1.00
C5       0.48516    0.59757    0.34316   1.00
H2       0.52824    0.63546    0.34705   1.00
H2       0.45000    0.60896    0.34492   1.00
H2       0.47541    0.55904    0.35152   1.00
C6       0.51031    0.53491    0.31612   1.00
C6       0.53365    0.50647    0.33249   1.00
C4       0.48881    0.44434    0.34131   1.00
C5       0.41527    0.40991    0.33621   1.00
H2       0.40617    0.37930    0.32507   1.00
H2       0.38909    0.38494    0.34771   1.00
H2       0.40326    0.44370    0.33248   1.00
C4       0.60179    0.54351    0.33821   1.00
C5       0.65371    0.61165    0.32880   1.00
H2       0.65281    0.64825    0.33596   1.00
H2       0.69846    0.61717    0.32972   1.00
H2       0.64231    0.61257    0.31485   1.00
C3       0.51315    0.41782    0.35587   1.00
H1       0.48295    0.37661    0.36206   1.00
C3       0.62341    0.51157    0.35309   1.00
H1       0.66886    0.53418    0.35707   1.00
C2       0.58037    0.45063    0.36143   1.00
C2       0.13272    0.21123    0.11889   1.00
C3       0.15494    0.27640    0.11469   1.00
H1       0.15463    0.28895    0.10128   1.00
C3       0.13185    0.19375    0.13864   1.00
H1       0.11556    0.14827    0.14195   1.00
C4       0.17819    0.32605    0.12942   1.00
C5       0.20331    0.40063    0.12464   1.00
H2       0.16536    0.40841    0.12447   1.00
H2       0.22510    0.41164    0.11161   1.00
H2       0.23535    0.42885    0.13479   1.00
C4       0.15453    0.24179    0.15394   1.00
C5       0.15182    0.22092    0.17650   1.00
H2       0.19490    0.22611    0.18039   1.00
H2       0.11666    0.17437    0.17826   1.00
H2       0.14207    0.24970    0.18486   1.00
C6       0.17697    0.30873    0.14946   1.00
C6       0.20031    0.36051    0.16583   1.00
C4       0.15547    0.37780    0.17465   1.00
C5       0.08193    0.33869    0.16955   1.00
H2       0.07283    0.36020    0.15841   1.00
H2       0.05575    0.33748    0.18105   1.00
H2       0.06992    0.29289    0.16582   1.00
C4       0.26845    0.39161    0.17155   1.00
C5       0.32037    0.37539    0.16214   1.00
H2       0.31947    0.33789    0.16930   1.00
H2       0.36512    0.41462    0.16306   1.00
H2       0.30897    0.36307    0.14819   1.00
C3       0.17981    0.42866    0.18921   1.00
H1       0.14961    0.43967    0.19540   1.00
C3       0.29007    0.44517    0.18643   1.00
H1       0.33552    0.46801    0.19041   1.00
C2       0.24703    0.46307    0.19477   1.00
C2       0.78877    0.92150    0.11889   1.00
C3       0.72360    0.87855    0.11469   1.00
H1       0.71105    0.86569    0.10128   1.00
C3       0.80625    0.93811    0.13864   1.00
H1       0.85173    0.96730    0.14195   1.00
C4       0.67395    0.85215    0.12942   1.00
C5       0.59937    0.80269    0.12464   1.00
H2       0.59159    0.75696    0.12447   1.00
H2       0.58836    0.81347    0.11161   1.00
H2       0.57115    0.80651    0.13479   1.00
C4       0.75821    0.91275    0.15394   1.00
C5       0.77908    0.93091    0.17650   1.00
H2       0.77389    0.96880    0.18039   1.00
H2       0.82563    0.94230    0.17826   1.00
H2       0.75030    0.89238    0.18486   1.00
C6       0.69127    0.86825    0.14946   1.00
C6       0.63949    0.83981    0.16583   1.00
C4       0.62220    0.77768    0.17465   1.00
C5       0.66131    0.74325    0.16955   1.00
H2       0.63980    0.71264    0.15841   1.00
H2       0.66252    0.71828    0.18105   1.00
H2       0.70711    0.77704    0.16582   1.00
C4       0.60839    0.87685    0.17155   1.00
C5       0.62461    0.94499    0.16214   1.00
H2       0.66211    0.98159    0.16930   1.00
H2       0.58538    0.95051    0.16306   1.00
H2       0.63693    0.94591    0.14819   1.00
C3       0.57134    0.75116    0.18921   1.00
H1       0.56033    0.70995    0.19540   1.00
C3       0.55483    0.84491    0.18643   1.00
H1       0.53199    0.86752    0.19041   1.00
C2       0.53693    0.78397    0.19477   1.00
C2       0.07850    0.86728    0.11889   1.00
C3       0.12145    0.84506    0.11469   1.00
H1       0.13431    0.84537    0.10128   1.00
C3       0.06189    0.86815    0.13864   1.00
H1       0.03270    0.88444    0.14195   1.00
C4       0.14785    0.82181    0.12942   1.00
C5       0.19731    0.79669    0.12464   1.00
H2       0.24304    0.83464    0.12447   1.00
H2       0.18653    0.77490    0.11161   1.00
H2       0.19349    0.76465    0.13479   1.00
C4       0.08725    0.84547    0.15394   1.00
C5       0.06909    0.84818    0.17650   1.00
H2       0.03120    0.80510    0.18039   1.00
H2       0.05770    0.88334    0.17826   1.00
H2       0.10762    0.85793    0.18486   1.00
C6       0.13175    0.82303    0.14946   1.00
C6       0.16019    0.79969    0.16583   1.00
C4       0.22232    0.84453    0.17465   1.00
C5       0.25675    0.91807    0.16955   1.00
H2       0.28736    0.92717    0.15841   1.00
H2       0.28172    0.94425    0.18105   1.00
H2       0.22296    0.93008    0.16582   1.00
C4       0.12315    0.73155    0.17155   1.00
C5       0.05501    0.67963    0.16214   1.00
H2       0.01841    0.68053    0.16930   1.00
H2       0.04949    0.63488    0.16306   1.00
H2       0.05409    0.69103    0.14819   1.00
C3       0.24884    0.82019    0.18921   1.00
H1       0.29005    0.85039    0.19540   1.00
C3       0.15509    0.70993    0.18643   1.00
H1       0.13248    0.66448    0.19041   1.00
C2       0.21603    0.75297    0.19477   1.00
C2       0.87789    0.46606    0.71445   1.00
C3       0.94306    0.48828    0.71865   1.00
H1       0.95561    0.48797    0.73206   1.00
C3       0.86041    0.46519    0.69470   1.00
H1       0.81493    0.44890    0.69139   1.00
C4       0.99271    0.51153    0.70392   1.00
C5       0.06729    0.53665    0.70870   1.00
H2       0.07507    0.49870    0.70887   1.00
H2       0.07830    0.55844    0.72173   1.00
H2       0.09551    0.56869    0.69855   1.00
C4       0.90845    0.48787    0.67940   1.00
C5       0.88758    0.48516    0.65684   1.00
H2       0.89277    0.52824    0.65295   1.00
H2       0.84103    0.45000    0.65508   1.00
H2       0.91636    0.47541    0.64848   1.00
C6       0.97539    0.51031    0.68388   1.00
C6       0.02717    0.53365    0.66751   1.00
C4       0.04446    0.48881    0.65869   1.00
C5       0.00535    0.41527    0.66379   1.00
H2       0.02686    0.40617    0.67493   1.00
H2       0.00414    0.38909    0.65229   1.00
H2       0.95955    0.40326    0.66752   1.00
C4       0.05827    0.60179    0.66179   1.00
C5       0.04205    0.65371    0.67120   1.00
H2       0.00455    0.65281    0.66404   1.00
H2       0.08128    0.69846    0.67028   1.00
H2       0.02973    0.64231    0.68515   1.00
C3       0.09532    0.51315    0.64413   1.00
H1       0.10633    0.48295    0.63794   1.00
C3       0.11183    0.62341    0.64691   1.00
H1       0.13467    0.66886    0.64293   1.00
C2       0.12973    0.58037    0.63857   1.00
C2       0.58816    0.12211    0.71445   1.00
C3       0.54521    0.05694    0.71865   1.00
H1       0.53235    0.04439    0.73206   1.00
C3       0.60477    0.13959    0.69470   1.00
H1       0.63396    0.18507    0.69139   1.00
C4       0.51881    0.00729    0.70392   1.00
C5       0.46935    0.93271    0.70870   1.00
H2       0.42362    0.92493    0.70887   1.00
H2       0.48013    0.92170    0.72173   1.00
H2       0.47317    0.90449    0.69855   1.00
C4       0.57941    0.09155    0.67940   1.00
C5       0.59757    0.11242    0.65684   1.00
H2       0.63546    0.10723    0.65295   1.00
H2       0.60896    0.15897    0.65508   1.00
H2       0.55904    0.08364    0.64848   1.00
C6       0.53491    0.02461    0.68388   1.00
C6       0.50647    0.97283    0.66751   1.00
C4       0.44434    0.95554    0.65869   1.00
C5       0.40991    0.99465    0.66379   1.00
H2       0.37930    0.97314    0.67493   1.00
H2       0.38494    0.99586    0.65229   1.00
H2       0.44370    0.04045    0.66752   1.00
C4       0.54351    0.94173    0.66179   1.00
C5       0.61165    0.95795    0.67120   1.00
H2       0.64825    0.99545    0.66404   1.00
H2       0.61717    0.91872    0.67028   1.00
H2       0.61257    0.97027    0.68515   1.00
C3       0.41782    0.90468    0.64413   1.00
H1       0.37661    0.89367    0.63794   1.00
C3       0.51157    0.88817    0.64691   1.00
H1       0.53418    0.86533    0.64293   1.00
C2       0.45063    0.87027    0.63857   1.00
C2       0.53394    0.41184    0.71445   1.00
C3       0.51172    0.45479    0.71865   1.00
H1       0.51203    0.46765    0.73206   1.00
C3       0.53481    0.39523    0.69470   1.00
H1       0.55110    0.36604    0.69139   1.00
C4       0.48847    0.48119    0.70392   1.00
C5       0.46335    0.53065    0.70870   1.00
H2       0.50130    0.57638    0.70887   1.00
H2       0.44156    0.51987    0.72173   1.00
H2       0.43131    0.52683    0.69855   1.00
C4       0.51213    0.42059    0.67940   1.00
C5       0.51484    0.40243    0.65684   1.00
H2       0.47176    0.36454    0.65295   1.00
H2       0.55000    0.39104    0.65508   1.00
H2       0.52459    0.44096    0.64848   1.00
C6       0.48969    0.46509    0.68388   1.00
C6       0.46635    0.49353    0.66751   1.00
C4       0.51119    0.55566    0.65869   1.00
C5       0.58473    0.59009    0.66379   1.00
H2       0.59383    0.62070    0.67493   1.00
H2       0.61091    0.61506    0.65229   1.00
H2       0.59674    0.55630    0.66752   1.00
C4       0.39821    0.45649    0.66179   1.00
C5       0.34629    0.38835    0.67120   1.00
H2       0.34719    0.35175    0.66404   1.00
H2       0.30154    0.38283    0.67028   1.00
H2       0.35769    0.38743    0.68515   1.00
C3       0.48685    0.58218    0.64413   1.00
H1       0.51705    0.62339    0.63794   1.00
C3       0.37659    0.48843    0.64691   1.00
H1       0.33114    0.46582    0.64293   1.00
C2       0.41963    0.54937    0.63857   1.00
C2       0.53394    0.12211    0.21445   1.00
C3       0.51172    0.05694    0.21865   1.00
H1       0.51203    0.04439    0.23206   1.00
C3       0.53481    0.13959    0.19470   1.00
H1       0.55110    0.18507    0.19139   1.00
C4       0.48847    0.00729    0.20392   1.00
C5       0.46335    0.93271    0.20870   1.00
H2       0.50130    0.92493    0.20887   1.00
H2       0.44156    0.92170    0.22173   1.00
H2       0.43131    0.90449    0.19855   1.00
C4       0.51213    0.09155    0.17940   1.00
C5       0.51484    0.11242    0.15684   1.00
H2       0.47176    0.10723    0.15295   1.00
H2       0.55000    0.15897    0.15508   1.00
H2       0.52459    0.08364    0.14848   1.00
C6       0.48969    0.02461    0.18388   1.00
C6       0.46635    0.97283    0.16751   1.00
C4       0.51119    0.95554    0.15869   1.00
C5       0.58473    0.99465    0.16379   1.00
H2       0.59383    0.97314    0.17493   1.00
H2       0.61091    0.99586    0.15229   1.00
H2       0.59674    0.04045    0.16752   1.00
C4       0.39821    0.94173    0.16179   1.00
C5       0.34629    0.95795    0.17120   1.00
H2       0.34719    0.99545    0.16404   1.00
H2       0.30154    0.91872    0.17028   1.00
H2       0.35769    0.97027    0.18515   1.00
C3       0.48685    0.90468    0.14413   1.00
H1       0.51705    0.89367    0.13794   1.00
C3       0.37659    0.88817    0.14691   1.00
H1       0.33114    0.86533    0.14293   1.00
C2       0.41963    0.87027    0.13857   1.00
C2       0.87789    0.41184    0.21445   1.00
C3       0.94306    0.45479    0.21865   1.00
H1       0.95561    0.46765    0.23206   1.00
C3       0.86041    0.39523    0.19470   1.00
H1       0.81493    0.36604    0.19139   1.00
C4       0.99271    0.48119    0.20392   1.00
C5       0.06729    0.53065    0.20870   1.00
H2       0.07507    0.57638    0.20887   1.00
H2       0.07830    0.51987    0.22173   1.00
H2       0.09551    0.52683    0.19855   1.00
C4       0.90845    0.42059    0.17940   1.00
C5       0.88758    0.40243    0.15684   1.00
H2       0.89277    0.36454    0.15295   1.00
H2       0.84103    0.39104    0.15508   1.00
H2       0.91636    0.44096    0.14848   1.00
C6       0.97539    0.46509    0.18388   1.00
C6       0.02717    0.49353    0.16751   1.00
C4       0.04446    0.55566    0.15869   1.00
C5       0.00535    0.59009    0.16379   1.00
H2       0.02686    0.62070    0.17493   1.00
H2       0.00414    0.61506    0.15229   1.00
H2       0.95955    0.55630    0.16752   1.00
C4       0.05827    0.45649    0.16179   1.00
C5       0.04205    0.38835    0.17120   1.00
H2       0.00455    0.35175    0.16404   1.00
H2       0.08128    0.38283    0.17028   1.00
H2       0.02973    0.38743    0.18515   1.00
C3       0.09532    0.58218    0.14413   1.00
H1       0.10633    0.62339    0.13794   1.00
C3       0.11183    0.48843    0.14691   1.00
H1       0.13467    0.46582    0.14293   1.00
C2       0.12973    0.54937    0.13857   1.00
C2       0.58816    0.46606    0.21445   1.00
C3       0.54521    0.48828    0.21865   1.00
H1       0.53235    0.48797    0.23206   1.00
C3       0.60477    0.46519    0.19470   1.00
H1       0.63396    0.44890    0.19139   1.00
C4       0.51881    0.51153    0.20392   1.00
C5       0.46935    0.53665    0.20870   1.00
H2       0.42362    0.49870    0.20887   1.00
H2       0.48013    0.55844    0.22173   1.00
H2       0.47317    0.56869    0.19855   1.00
C4       0.57941    0.48787    0.17940   1.00
C5       0.59757    0.48516    0.15684   1.00
H2       0.63546    0.52824    0.15295   1.00
H2       0.60896    0.45000    0.15508   1.00
H2       0.55904    0.47541    0.14848   1.00
C6       0.53491    0.51031    0.18388   1.00
C6       0.50647    0.53365    0.16751   1.00
C4       0.44434    0.48881    0.15869   1.00
C5       0.40991    0.41527    0.16379   1.00
H2       0.37930    0.40617    0.17493   1.00
H2       0.38494    0.38909    0.15229   1.00
H2       0.44370    0.40326    0.16752   1.00
C4       0.54351    0.60179    0.16179   1.00
C5       0.61165    0.65371    0.17120   1.00
H2       0.64825    0.65281    0.16404   1.00
H2       0.61717    0.69846    0.17028   1.00
H2       0.61257    0.64231    0.18515   1.00
C3       0.41782    0.51315    0.14413   1.00
H1       0.37661    0.48295    0.13794   1.00
C3       0.51157    0.62341    0.14691   1.00
H1       0.53418    0.66886    0.14293   1.00
C2       0.45063    0.58037    0.13857   1.00
C2       0.78877    0.86728    0.61889   1.00
C3       0.72360    0.84506    0.61469   1.00
H1       0.71105    0.84537    0.60128   1.00
C3       0.80625    0.86815    0.63864   1.00
H1       0.85173    0.88444    0.64195   1.00
C4       0.67395    0.82181    0.62942   1.00
C5       0.59937    0.79669    0.62464   1.00
H2       0.59159    0.83464    0.62447   1.00
H2       0.58836    0.77490    0.61161   1.00
H2       0.57115    0.76465    0.63479   1.00
C4       0.75821    0.84547    0.65394   1.00
C5       0.77908    0.84818    0.67650   1.00
H2       0.77389    0.80510    0.68039   1.00
H2       0.82563    0.88334    0.67826   1.00
H2       0.75030    0.85793    0.68486   1.00
C6       0.69127    0.82303    0.64946   1.00
C6       0.63949    0.79969    0.66583   1.00
C4       0.62220    0.84453    0.67465   1.00
C5       0.66131    0.91807    0.66955   1.00
H2       0.63980    0.92717    0.65841   1.00
H2       0.66252    0.94425    0.68105   1.00
H2       0.70711    0.93008    0.66582   1.00
C4       0.60839    0.73155    0.67155   1.00
C5       0.62461    0.67963    0.66214   1.00
H2       0.66211    0.68053    0.66930   1.00
H2       0.58538    0.63488    0.66306   1.00
H2       0.63693    0.69103    0.64819   1.00
C3       0.57134    0.82019    0.68921   1.00
H1       0.56033    0.85039    0.69540   1.00
C3       0.55483    0.70993    0.68643   1.00
H1       0.53199    0.66448    0.69041   1.00
C2       0.53693    0.75297    0.69477   1.00
C2       0.07850    0.21123    0.61889   1.00
C3       0.12145    0.27640    0.61469   1.00
H1       0.13431    0.28895    0.60128   1.00
C3       0.06189    0.19375    0.63864   1.00
H1       0.03270    0.14827    0.64195   1.00
C4       0.14785    0.32605    0.62942   1.00
C5       0.19731    0.40063    0.62464   1.00
H2       0.24304    0.40841    0.62447   1.00
H2       0.18653    0.41164    0.61161   1.00
H2       0.19349    0.42885    0.63479   1.00
C4       0.08725    0.24179    0.65394   1.00
C5       0.06909    0.22092    0.67650   1.00
H2       0.03120    0.22611    0.68039   1.00
H2       0.05770    0.17437    0.67826   1.00
H2       0.10762    0.24970    0.68486   1.00
C6       0.13175    0.30873    0.64946   1.00
C6       0.16019    0.36051    0.66583   1.00
C4       0.22232    0.37780    0.67465   1.00
C5       0.25675    0.33869    0.66955   1.00
H2       0.28736    0.36020    0.65841   1.00
H2       0.28172    0.33748    0.68105   1.00
H2       0.22296    0.29289    0.66582   1.00
C4       0.12315    0.39161    0.67155   1.00
C5       0.05501    0.37539    0.66214   1.00
H2       0.01841    0.33789    0.66930   1.00
H2       0.04949    0.41462    0.66306   1.00
H2       0.05409    0.36307    0.64819   1.00
C3       0.24884    0.42866    0.68921   1.00
H1       0.29005    0.43967    0.69540   1.00
C3       0.15509    0.44517    0.68643   1.00
H1       0.13248    0.46801    0.69041   1.00
C2       0.21603    0.46307    0.69477   1.00
C2       0.13272    0.92150    0.61889   1.00
C3       0.15494    0.87855    0.61469   1.00
H1       0.15463    0.86569    0.60128   1.00
C3       0.13185    0.93811    0.63864   1.00
H1       0.11556    0.96730    0.64195   1.00
C4       0.17819    0.85215    0.62942   1.00
C5       0.20331    0.80269    0.62464   1.00
H2       0.16536    0.75696    0.62447   1.00
H2       0.22510    0.81347    0.61161   1.00
H2       0.23535    0.80651    0.63479   1.00
C4       0.15453    0.91275    0.65394   1.00
C5       0.15182    0.93091    0.67650   1.00
H2       0.19490    0.96880    0.68039   1.00
H2       0.11666    0.94230    0.67826   1.00
H2       0.14207    0.89238    0.68486   1.00
C6       0.17697    0.86825    0.64946   1.00
C6       0.20031    0.83981    0.66583   1.00
C4       0.15547    0.77768    0.67465   1.00
C5       0.08193    0.74325    0.66955   1.00
H2       0.07283    0.71264    0.65841   1.00
H2       0.05575    0.71828    0.68105   1.00
H2       0.06992    0.77704    0.66582   1.00
C4       0.26845    0.87685    0.67155   1.00
C5       0.32037    0.94499    0.66214   1.00
H2       0.31947    0.98159    0.66930   1.00
H2       0.36512    0.95051    0.66306   1.00
H2       0.30897    0.94591    0.64819   1.00
C3       0.17981    0.75116    0.68921   1.00
H1       0.14961    0.70995    0.69540   1.00
C3       0.29007    0.84491    0.68643   1.00
H1       0.33552    0.86752    0.69041   1.00
C2       0.24703    0.78397    0.69477   1.00
