data_IRMOF10_interpen_symm_ligand3cp_label_h_2.

_audit_creation_method             'generated by an auxiliary program of Tobunporous'

_symmetry_space_group_name_H-M     'P 1'
_symmetry_Int_Tables_number        1
_symmetry_cell_setting             triclinic

_cell_length_a                    22.6523
_cell_length_b                    22.6523
_cell_length_c                    65.9502
_cell_angle_alpha                 90.0000
_cell_angle_beta                  90.0000
_cell_angle_gamma                 120.0000

loop_
_atom_site_label
_atom_site_fract_x
_atom_site_fract_y
_atom_site_fract_z
_atom_site_occupancy
O1       0.00000    0.00000    0.57470   1.00
Zn1      0.00000    0.00000    0.54560   1.00
Zn1      0.94843    0.04287    0.58357   1.00
Zn1      0.09443    0.05157    0.58357   1.00
Zn1      0.95713    0.90557    0.58357   1.00
O2       0.93860    0.02610    0.53560   1.00
O2       0.08750    0.06140    0.53560   1.00
O2       0.97390    0.91250    0.53560   1.00
O2       0.91300    0.07160    0.56150   1.00
O2       0.00463    0.12027    0.60077   1.00
O2       0.87413    0.98077    0.60037   1.00
O2       0.15860    0.08700    0.56150   1.00
O2       0.10663    0.12587    0.60037   1.00
O2       0.11563    0.99537    0.60077   1.00
O2       0.92840    0.84140    0.56150   1.00
O2       0.87973    0.88437    0.60077   1.00
O2       0.01923    0.89337    0.60037   1.00
C1       0.91390    0.06020    0.54330   1.00
C1       0.14630    0.08610    0.54330   1.00
C1       0.93980    0.85370    0.54330   1.00
C1       0.06663    0.14397    0.60637   1.00
C1       0.85603    0.92267    0.60637   1.00
C1       0.07733    0.93337    0.60637   1.00
O1       0.00000    0.00000    0.92530   1.00
Zn1      0.00000    0.00000    0.95440   1.00
Zn1      0.04287    0.94843    0.91643   1.00
Zn1      0.05157    0.09443    0.91643   1.00
Zn1      0.90557    0.95713    0.91643   1.00
O2       0.02610    0.93860    0.96440   1.00
O2       0.06140    0.08750    0.96440   1.00
O2       0.91250    0.97390    0.96440   1.00
O2       0.07160    0.91300    0.93850   1.00
O2       0.12027    0.00463    0.89923   1.00
O2       0.98077    0.87413    0.89963   1.00
O2       0.08700    0.15860    0.93850   1.00
O2       0.12587    0.10663    0.89963   1.00
O2       0.99537    0.11563    0.89923   1.00
O2       0.84140    0.92840    0.93850   1.00
O2       0.88437    0.87973    0.89923   1.00
O2       0.89337    0.01923    0.89963   1.00
C1       0.06020    0.91390    0.95670   1.00
C1       0.08610    0.14630    0.95670   1.00
C1       0.85370    0.93980    0.95670   1.00
C1       0.14397    0.06663    0.89363   1.00
C1       0.92267    0.85603    0.89363   1.00
C1       0.93337    0.07733    0.89363   1.00
O1       0.00000    0.00000    0.42530   1.00
Zn1      0.00000    0.00000    0.45440   1.00
Zn1      0.05157    0.95713    0.41643   1.00
Zn1      0.90557    0.94843    0.41643   1.00
Zn1      0.04287    0.09443    0.41643   1.00
O2       0.06140    0.97390    0.46440   1.00
O2       0.91250    0.93860    0.46440   1.00
O2       0.02610    0.08750    0.46440   1.00
O2       0.08700    0.92840    0.43850   1.00
O2       0.99537    0.87973    0.39923   1.00
O2       0.12587    0.01923    0.39963   1.00
O2       0.84140    0.91300    0.43850   1.00
O2       0.89337    0.87413    0.39963   1.00
O2       0.88437    0.00463    0.39923   1.00
O2       0.07160    0.15860    0.43850   1.00
O2       0.12027    0.11563    0.39923   1.00
O2       0.98077    0.10663    0.39963   1.00
C1       0.08610    0.93980    0.45670   1.00
C1       0.85370    0.91390    0.45670   1.00
C1       0.06020    0.14630    0.45670   1.00
C1       0.93337    0.85603    0.39363   1.00
C1       0.14397    0.07733    0.39363   1.00
C1       0.92267    0.06663    0.39363   1.00
O1       0.00000    0.00000    0.07470   1.00
Zn1      0.00000    0.00000    0.04560   1.00
Zn1      0.95713    0.05157    0.08357   1.00
Zn1      0.94843    0.90557    0.08357   1.00
Zn1      0.09443    0.04287    0.08357   1.00
O2       0.97390    0.06140    0.03560   1.00
O2       0.93860    0.91250    0.03560   1.00
O2       0.08750    0.02610    0.03560   1.00
O2       0.92840    0.08700    0.06150   1.00
O2       0.87973    0.99537    0.10077   1.00
O2       0.01923    0.12587    0.10037   1.00
O2       0.91300    0.84140    0.06150   1.00
O2       0.87413    0.89337    0.10037   1.00
O2       0.00463    0.88437    0.10077   1.00
O2       0.15860    0.07160    0.06150   1.00
O2       0.11563    0.12027    0.10077   1.00
O2       0.10663    0.98077    0.10037   1.00
C1       0.93980    0.08610    0.04330   1.00
C1       0.91390    0.85370    0.04330   1.00
C1       0.14630    0.06020    0.04330   1.00
C1       0.85603    0.93337    0.10637   1.00
C1       0.07733    0.14397    0.10637   1.00
C1       0.06663    0.92267    0.10637   1.00
O1       0.66667    0.33333    0.90803   1.00
Zn1      0.66667    0.33333    0.87893   1.00
Zn1      0.61510    0.37620    0.91690   1.00
Zn1      0.76110    0.38490    0.91690   1.00
Zn1      0.62380    0.23890    0.91690   1.00
O2       0.60527    0.35943    0.86893   1.00
O2       0.75417    0.39473    0.86893   1.00
O2       0.64057    0.24583    0.86893   1.00
O2       0.57967    0.40493    0.89483   1.00
O2       0.67130    0.45360    0.93410   1.00
O2       0.54080    0.31410    0.93370   1.00
O2       0.82527    0.42033    0.89483   1.00
O2       0.77330    0.45920    0.93370   1.00
O2       0.78230    0.32870    0.93410   1.00
O2       0.59507    0.17473    0.89483   1.00
O2       0.54640    0.21770    0.93410   1.00
O2       0.68590    0.22670    0.93370   1.00
C1       0.58057    0.39353    0.87663   1.00
C1       0.81297    0.41943    0.87663   1.00
C1       0.60647    0.18703    0.87663   1.00
C1       0.73330    0.47730    0.93970   1.00
C1       0.52270    0.25600    0.93970   1.00
C1       0.74400    0.26670    0.93970   1.00
O1       0.66667    0.33333    0.25863   1.00
Zn1      0.66667    0.33333    0.28773   1.00
Zn1      0.70953    0.28177    0.24977   1.00
Zn1      0.71823    0.42777    0.24977   1.00
Zn1      0.57223    0.29047    0.24977   1.00
O2       0.69277    0.27193    0.29773   1.00
O2       0.72807    0.42083    0.29773   1.00
O2       0.57917    0.30723    0.29773   1.00
O2       0.73827    0.24633    0.27183   1.00
O2       0.78693    0.33797    0.23257   1.00
O2       0.64743    0.20747    0.23297   1.00
O2       0.75367    0.49193    0.27183   1.00
O2       0.79253    0.43997    0.23297   1.00
O2       0.66203    0.44897    0.23257   1.00
O2       0.50807    0.26173    0.27183   1.00
O2       0.55103    0.21307    0.23257   1.00
O2       0.56003    0.35257    0.23297   1.00
C1       0.72687    0.24723    0.29003   1.00
C1       0.75277    0.47963    0.29003   1.00
C1       0.52037    0.27313    0.29003   1.00
C1       0.81063    0.39997    0.22697   1.00
C1       0.58933    0.18937    0.22697   1.00
C1       0.60003    0.41067    0.22697   1.00
O1       0.66667    0.33333    0.75863   1.00
Zn1      0.66667    0.33333    0.78773   1.00
Zn1      0.71823    0.29047    0.74977   1.00
Zn1      0.57223    0.28177    0.74977   1.00
Zn1      0.70953    0.42777    0.74977   1.00
O2       0.72807    0.30723    0.79773   1.00
O2       0.57917    0.27193    0.79773   1.00
O2       0.69277    0.42083    0.79773   1.00
O2       0.75367    0.26173    0.77183   1.00
O2       0.66203    0.21307    0.73257   1.00
O2       0.79253    0.35257    0.73297   1.00
O2       0.50807    0.24633    0.77183   1.00
O2       0.56003    0.20747    0.73297   1.00
O2       0.55103    0.33797    0.73257   1.00
O2       0.73827    0.49193    0.77183   1.00
O2       0.78693    0.44897    0.73257   1.00
O2       0.64743    0.43997    0.73297   1.00
C1       0.75277    0.27313    0.79003   1.00
C1       0.52037    0.24723    0.79003   1.00
C1       0.72687    0.47963    0.79003   1.00
C1       0.60003    0.18937    0.72697   1.00
C1       0.81063    0.41067    0.72697   1.00
C1       0.58933    0.39997    0.72697   1.00
O1       0.66667    0.33333    0.40803   1.00
Zn1      0.66667    0.33333    0.37893   1.00
Zn1      0.62380    0.38490    0.41690   1.00
Zn1      0.61510    0.23890    0.41690   1.00
Zn1      0.76110    0.37620    0.41690   1.00
O2       0.64057    0.39473    0.36893   1.00
O2       0.60527    0.24583    0.36893   1.00
O2       0.75417    0.35943    0.36893   1.00
O2       0.59507    0.42033    0.39483   1.00
O2       0.54640    0.32870    0.43410   1.00
O2       0.68590    0.45920    0.43370   1.00
O2       0.57967    0.17473    0.39483   1.00
O2       0.54080    0.22670    0.43370   1.00
O2       0.67130    0.21770    0.43410   1.00
O2       0.82527    0.40493    0.39483   1.00
O2       0.78230    0.45360    0.43410   1.00
O2       0.77330    0.31410    0.43370   1.00
C1       0.60647    0.41943    0.37663   1.00
C1       0.58057    0.18703    0.37663   1.00
C1       0.81297    0.39353    0.37663   1.00
C1       0.52270    0.26670    0.43970   1.00
C1       0.74400    0.47730    0.43970   1.00
C1       0.73330    0.25600    0.43970   1.00
O1       0.33333    0.66667    0.24137   1.00
Zn1      0.33333    0.66667    0.21227   1.00
Zn1      0.28177    0.70953    0.25023   1.00
Zn1      0.42777    0.71823    0.25023   1.00
Zn1      0.29047    0.57223    0.25023   1.00
O2       0.27193    0.69277    0.20227   1.00
O2       0.42083    0.72807    0.20227   1.00
O2       0.30723    0.57917    0.20227   1.00
O2       0.24633    0.73827    0.22817   1.00
O2       0.33797    0.78693    0.26743   1.00
O2       0.20747    0.64743    0.26703   1.00
O2       0.49193    0.75367    0.22817   1.00
O2       0.43997    0.79253    0.26703   1.00
O2       0.44897    0.66203    0.26743   1.00
O2       0.26173    0.50807    0.22817   1.00
O2       0.21307    0.55103    0.26743   1.00
O2       0.35257    0.56003    0.26703   1.00
C1       0.24723    0.72687    0.20997   1.00
C1       0.47963    0.75277    0.20997   1.00
C1       0.27313    0.52037    0.20997   1.00
C1       0.39997    0.81063    0.27303   1.00
C1       0.18937    0.58933    0.27303   1.00
C1       0.41067    0.60003    0.27303   1.00
O1       0.33333    0.66667    0.59197   1.00
Zn1      0.33333    0.66667    0.62107   1.00
Zn1      0.37620    0.61510    0.58310   1.00
Zn1      0.38490    0.76110    0.58310   1.00
Zn1      0.23890    0.62380    0.58310   1.00
O2       0.35943    0.60527    0.63107   1.00
O2       0.39473    0.75417    0.63107   1.00
O2       0.24583    0.64057    0.63107   1.00
O2       0.40493    0.57967    0.60517   1.00
O2       0.45360    0.67130    0.56590   1.00
O2       0.31410    0.54080    0.56630   1.00
O2       0.42033    0.82527    0.60517   1.00
O2       0.45920    0.77330    0.56630   1.00
O2       0.32870    0.78230    0.56590   1.00
O2       0.17473    0.59507    0.60517   1.00
O2       0.21770    0.54640    0.56590   1.00
O2       0.22670    0.68590    0.56630   1.00
C1       0.39353    0.58057    0.62337   1.00
C1       0.41943    0.81297    0.62337   1.00
C1       0.18703    0.60647    0.62337   1.00
C1       0.47730    0.73330    0.56030   1.00
C1       0.25600    0.52270    0.56030   1.00
C1       0.26670    0.74400    0.56030   1.00
O1       0.33333    0.66667    0.09197   1.00
Zn1      0.33333    0.66667    0.12107   1.00
Zn1      0.38490    0.62380    0.08310   1.00
Zn1      0.23890    0.61510    0.08310   1.00
Zn1      0.37620    0.76110    0.08310   1.00
O2       0.39473    0.64057    0.13107   1.00
O2       0.24583    0.60527    0.13107   1.00
O2       0.35943    0.75417    0.13107   1.00
O2       0.42033    0.59507    0.10517   1.00
O2       0.32870    0.54640    0.06590   1.00
O2       0.45920    0.68590    0.06630   1.00
O2       0.17473    0.57967    0.10517   1.00
O2       0.22670    0.54080    0.06630   1.00
O2       0.21770    0.67130    0.06590   1.00
O2       0.40493    0.82527    0.10517   1.00
O2       0.45360    0.78230    0.06590   1.00
O2       0.31410    0.77330    0.06630   1.00
C1       0.41943    0.60647    0.12337   1.00
C1       0.18703    0.58057    0.12337   1.00
C1       0.39353    0.81297    0.12337   1.00
C1       0.26670    0.52270    0.06030   1.00
C1       0.47730    0.74400    0.06030   1.00
C1       0.25600    0.73330    0.06030   1.00
O1       0.33333    0.66667    0.74137   1.00
Zn1      0.33333    0.66667    0.71227   1.00
Zn1      0.29047    0.71823    0.75023   1.00
Zn1      0.28177    0.57223    0.75023   1.00
Zn1      0.42777    0.70953    0.75023   1.00
O2       0.30723    0.72807    0.70227   1.00
O2       0.27193    0.57917    0.70227   1.00
O2       0.42083    0.69277    0.70227   1.00
O2       0.26173    0.75367    0.72817   1.00
O2       0.21307    0.66203    0.76743   1.00
O2       0.35257    0.79253    0.76703   1.00
O2       0.24633    0.50807    0.72817   1.00
O2       0.20747    0.56003    0.76703   1.00
O2       0.33797    0.55103    0.76743   1.00
O2       0.49193    0.73827    0.72817   1.00
O2       0.44897    0.78693    0.76743   1.00
O2       0.43997    0.64743    0.76703   1.00
C1       0.27313    0.75277    0.70997   1.00
C1       0.24723    0.52037    0.70997   1.00
C1       0.47963    0.72687    0.70997   1.00
C1       0.18937    0.60003    0.77303   1.00
C1       0.41067    0.81063    0.77303   1.00
C1       0.39997    0.58933    0.77303   1.00
C4       0.86270    0.69625    0.49772   1.00
C4       0.83538    0.64262    0.48303   1.00
C3       0.93010    0.75274    0.49690   1.00
C3       0.87453    0.63688    0.46713   1.00
C3       0.82111    0.69325    0.51441   1.00
C3       0.76500    0.59165    0.48409   1.00
C2       0.91527    0.80088    0.52858   1.00
C2       0.77673    0.53176    0.45418   1.00
C3       0.95583    0.80342    0.51196   1.00
C3       0.84590    0.58335    0.45299   1.00
C3       0.84760    0.74556    0.52924   1.00
C3       0.73786    0.53654    0.47022   1.00
H1       0.96239    0.75883    0.48531   1.00
H1       0.92509    0.67117    0.46543   1.00
C5       0.75323    0.63816    0.51613   1.00
C5       0.72218    0.59551    0.49908   1.00
H1       1.00514    0.84281    0.51064   1.00
H1       0.87652    0.58213    0.44171   1.00
H1       0.81656    0.74371    0.54081   1.00
H1       0.68854    0.49817    0.47197   1.00
O3       0.71732    0.62937    0.53382   1.00
O3       0.65206    0.55512    0.49796   1.00
Si1      0.71766    0.57909    0.55152   1.00
Si1      0.60940    0.58087    0.48417   1.00
C6       0.67551    0.59988    0.57030   1.00
C6       0.66635    0.49452    0.54299   1.00
C6       0.80048    0.60030    0.55941   1.00
C6       0.65550    0.65811    0.47058   1.00
C6       0.56535    0.51334    0.46705   1.00
C6       0.54898    0.58452    0.50015   1.00
C6       0.70270    0.67790    0.57356   1.00
H2       0.62462    0.57962    0.56381   1.00
C6       0.66398    0.56870    0.59219   1.00
H2       0.63234    0.49966    0.53233   1.00
C6       0.70095    0.46083    0.53073   1.00
C6       0.61859    0.43897    0.55860   1.00
H2       0.82480    0.65541    0.56163   1.00
C6       0.80710    0.57019    0.58012   1.00
C6       0.84780    0.58821    0.54459   1.00
C6       0.70361    0.72423    0.48278   1.00
C6       0.69560    0.66007    0.45098   1.00
H2       0.61487    0.66612    0.46481   1.00
H2       0.60533    0.51629    0.45714   1.00
C6       0.53009    0.43985    0.47633   1.00
C6       0.51147    0.51642    0.45293   1.00
H2       0.50739    0.53175    0.50095   1.00
C6       0.57113    0.60555    0.52261   1.00
C6       0.51597    0.62742    0.49297   1.00
H2       0.70245    0.70292    0.55943   1.00
H2       0.75481    0.70374    0.57945   1.00
H2       0.67072    0.68621    0.58427   1.00
H2       0.61593    0.56123    0.59840   1.00
H2       0.66172    0.51962    0.59252   1.00
H2       0.70393    0.60226    0.60275   1.00
H2       0.66268    0.41529    0.52277   1.00
H2       0.73552    0.49480    0.51916   1.00
H2       0.72916    0.44526    0.54072   1.00
H2       0.58441    0.45314    0.56603   1.00
H2       0.58582    0.39009    0.55112   1.00
H2       0.64819    0.43049    0.57013   1.00
H2       0.77446    0.51481    0.58047   1.00
H2       0.85948    0.58206    0.58308   1.00
H2       0.79397    0.59210    0.59280   1.00
H2       0.83991    0.53669    0.54587   1.00
H2       0.84069    0.59605    0.52877   1.00
H2       0.90138    0.62353    0.54815   1.00
H2       0.75315    0.72885    0.48559   1.00
H2       0.71289    0.76954    0.47427   1.00
H2       0.68180    0.72616    0.49730   1.00
H2       0.71312    0.70803    0.44281   1.00
H2       0.74062    0.65633    0.45439   1.00
H2       0.66394    0.61948    0.44037   1.00
H2       0.51436    0.40162    0.46430   1.00
H2       0.56492    0.43284    0.48618   1.00
H2       0.48487    0.42868    0.48513   1.00
H2       0.53237    0.56557    0.44527   1.00
H2       0.49499    0.47749    0.44108   1.00
H2       0.46619    0.50716    0.46140   1.00
H2       0.61460    0.65709    0.52382   1.00
H2       0.52952    0.60266    0.53174   1.00
H2       0.58557    0.57093    0.52940   1.00
H2       0.47239    0.61725    0.50253   1.00
H2       0.55237    0.68209    0.49371   1.00
H2       0.49695    0.61488    0.47747   1.00
C4       0.31088    0.16815    0.49998   1.00
C4       0.36305    0.19248    0.48484   1.00
C3       0.31303    0.13566    0.51815   1.00
C3       0.41936    0.18125    0.48548   1.00
C3       0.25254    0.17552    0.49678   1.00
C3       0.35942    0.23038    0.46806   1.00
C2       0.20171    0.11734    0.52937   1.00
C2       0.46565    0.24202    0.45339   1.00
C3       0.25981    0.11060    0.53240   1.00
C3       0.46961    0.20586    0.47030   1.00
C3       0.19998    0.15102    0.51151   1.00
C3       0.40899    0.25221    0.45248   1.00
H1       0.35344    0.12947    0.52161   1.00
H1       0.42531    0.15449    0.49694   1.00
C5       0.24721    0.20755    0.47892   1.00
C5       0.30609    0.24580    0.46680   1.00
H1       0.26395    0.08711    0.54520   1.00
H1       0.50949    0.19671    0.47165   1.00
H1       0.15934    0.15836    0.50928   1.00
H1       0.40329    0.27546    0.43994   1.00
O3       0.18639    0.20445    0.47429   1.00
O3       0.30886    0.29326    0.45307   1.00
Si1      0.13149    0.14396    0.45952   1.00
Si1      0.35007    0.37379    0.45928   1.00
C6       0.06399    0.16091    0.46278   1.00
C6       0.16414    0.16306    0.43462   1.00
C6       0.10854    0.06134    0.46809   1.00
C6       0.39184    0.39673    0.48303   1.00
C6       0.41052    0.41113    0.43979   1.00
C6       0.29228    0.40416    0.45725   1.00
C6       0.04800    0.17117    0.48523   1.00
H2       0.08424    0.21079    0.45560   1.00
C6       -0.00739   0.11443    0.45265   1.00
H2       0.19724    0.21830    0.43530   1.00
C6       0.21042    0.13425    0.42719   1.00
C6       0.11363    0.14978    0.41671   1.00
H2       0.09784    0.06383    0.48413   1.00
C6       0.04216    0.00018    0.45899   1.00
C6       0.16231    0.03681    0.46723   1.00
C6       0.34826    0.36385    0.50252   1.00
C6       0.45992    0.39563    0.48603   1.00
H2       0.40785    0.45081    0.48402   1.00
H2       0.44605    0.39272    0.44258   1.00
C6       0.38358    0.38782    0.41768   1.00
C6       0.45410    0.49073    0.43933   1.00
H2       0.29154    0.41392    0.44107   1.00
C6       0.21662    0.35268    0.46280   1.00
C6       0.31048    0.47251    0.46825   1.00
H2       0.09317    0.21124    0.49283   1.00
H2       0.02937    0.12427    0.49403   1.00
H2       0.00931    0.18654    0.48581   1.00
H2       -0.03063   0.14500    0.44849   1.00
H2       -0.00433   0.08931    0.43897   1.00
H2       -0.04313   0.07473    0.46291   1.00
H2       0.23862    0.16101    0.41355   1.00
H2       0.24845    0.14099    0.43844   1.00
H2       0.18011    0.08017    0.42344   1.00
H2       0.08528    0.17652    0.41899   1.00
H2       0.14086    0.16854    0.40233   1.00
H2       0.07762    0.09535    0.41490   1.00
H2       0.04373    0.00077    0.44243   1.00
H2       0.03459    -0.04914   0.46408   1.00
H2       -0.00307   0.00120    0.46394   1.00
H2       0.16199    0.01398    0.45262   1.00
H2       0.21417    0.07723    0.46991   1.00
H2       0.15073    -0.00205   0.47882   1.00
H2       0.34163    0.31358    0.50551   1.00
H2       0.37341    0.39536    0.51582   1.00
H2       0.29800    0.35891    0.50153   1.00
H2       0.48426    0.42005    0.50035   1.00
H2       0.45172    0.34404    0.48650   1.00
H2       0.49699    0.42364    0.47414   1.00
H2       0.42623    0.40445    0.40711   1.00
H2       0.35341    0.33229    0.41656   1.00
H2       0.35213    0.40885    0.41248   1.00
H2       0.47680    0.51158    0.45408   1.00
H2       0.49616    0.50737    0.42852   1.00
H2       0.42358    0.51347    0.43466   1.00
H2       0.21083    0.33671    0.47862   1.00
H2       0.18357    0.37412    0.46000   1.00
H2       0.19783    0.30740    0.45342   1.00
H2       0.27653    0.49110    0.46334   1.00
H2       0.30555    0.46590    0.48470   1.00
H2       0.36230    0.51270    0.46483   1.00
C4       0.83296    0.14361    0.49991   1.00
C4       0.80847    0.17120    0.48474   1.00
C3       0.87691    0.18275    0.51598   1.00
C3       0.83035    0.24172    0.48304   1.00
C3       0.81358    0.07322    0.49894   1.00
C3       0.75921    0.12629    0.47040   1.00
C2       0.88297    0.08481    0.52942   1.00
C2       0.75767    0.22319    0.45334   1.00
C3       0.90156    0.15431    0.53026   1.00
C3       0.80520    0.26696    0.46790   1.00
C3       0.83798    0.04520    0.51372   1.00
C3       0.73671    0.15311    0.45474   1.00
H1       0.89211    0.23303    0.51782   1.00
H1       0.86551    0.27688    0.49267   1.00
C5       0.76973    0.03123    0.48327   1.00
C5       0.73308    0.05498    0.47164   1.00
H1       0.93361    0.18523    0.54146   1.00
H1       0.82241    0.31837    0.46751   1.00
H1       0.82213    -0.00579   0.51316   1.00
H1       0.70479    0.12085    0.44383   1.00
O3       0.76034    -0.03318   0.48037   1.00
O3       0.67627    0.00981    0.46065   1.00
Si1      0.80794    -0.04485   0.46410   1.00
Si1      0.60076    -0.01473   0.47000   1.00
C6       0.78002    -0.13068   0.47032   1.00
C6       0.78083    -0.03784   0.43961   1.00
C6       0.89613    0.00761    0.46866   1.00
C6       0.59532    0.02016    0.49345   1.00
C6       0.56169    0.00826    0.45101   1.00
C6       0.55761    -0.10440   0.47145   1.00
C6       0.77754    -0.14697   0.49352   1.00
H2       0.72687    -0.15641   0.46539   1.00
C6       0.81222    -0.17036   0.45991   1.00
H2       0.72808    -0.05107   0.44234   1.00
C6       0.81566    0.03395    0.42926   1.00
C6       0.77742    -0.08805   0.42272   1.00
H2       0.89964    0.00105    0.48496   1.00
C6       0.94530    -0.01325   0.45830   1.00
C6       0.93096    0.08654    0.46481   1.00
C6       0.63253    0.01127    0.51218   1.00
C6       0.60960    0.09533    0.49427   1.00
H2       0.54104    -0.01021   0.49694   1.00
H2       0.58872    0.06385    0.45166   1.00
C6       0.57088    -0.00969   0.42872   1.00
C6       0.48427    -0.01586   0.45365   1.00
H2       0.53905    -0.12100   0.45604   1.00
C6       0.60218    -0.13730   0.47636   1.00
C6       0.49351    -0.14065   0.48555   1.00
H2       0.74643    -0.13077   0.50188   1.00
H2       0.82860    -0.12145   0.50017   1.00
H2       0.75488    -0.20175   0.49613   1.00
H2       0.77367    -0.22418   0.45821   1.00
H2       0.83264    -0.15087   0.44492   1.00
H2       0.85343    -0.16889   0.46891   1.00
H2       0.78524    0.03438    0.41643   1.00
H2       0.82059    0.07366    0.43958   1.00
H2       0.86612    0.04779    0.42348   1.00
H2       0.74528    -0.14110   0.42733   1.00
H2       0.75496    -0.08190   0.40875   1.00
H2       0.82824    -0.07915   0.41901   1.00
H2       0.93671    -0.01941   0.44194   1.00
H2       0.99898    0.02462    0.46081   1.00
H2       0.93895    -0.06038   0.46462   1.00
H2       0.94791    0.09997    0.44913   1.00
H2       0.89817    0.10740    0.46813   1.00
H2       0.97607    0.11372    0.47444   1.00
H2       0.68634    0.05006    0.51253   1.00
H2       0.60994    0.01614    0.52629   1.00
H2       0.62871    -0.03858   0.51245   1.00
H2       0.59491    0.10607    0.50903   1.00
H2       0.66329    0.13249    0.49212   1.00
H2       0.58023    0.10492    0.48297   1.00
H2       0.55523    0.01654    0.41791   1.00
H2       0.62422    0.00675    0.42544   1.00
H2       0.54057    -0.06429   0.42571   1.00
H2       0.47331    -0.00352   0.46868   1.00
H2       0.46839    0.00963    0.44264   1.00
H2       0.45257    -0.07074   0.45124   1.00
H2       0.62605    -0.12234   0.49126   1.00
H2       0.57236    -0.19292   0.47580   1.00
H2       0.64246    -0.12142   0.46516   1.00
H2       0.46551    -0.19564   0.48277   1.00
H2       0.50787    -0.13279   0.50156   1.00
H2       0.45792    -0.12232   0.48283   1.00
C4       0.69619    0.86294    0.00226   1.00
C4       0.64253    0.83554    0.01694   1.00
C3       0.75069    0.93146    0.00247   1.00
C3       0.63462    0.87540    0.03218   1.00
C3       0.69526    0.82017    -0.01379   1.00
C3       0.59381    0.76436    0.01657   1.00
C2       0.80091    0.91539    -0.02857   1.00
C2       0.53173    0.77661    0.04581   1.00
C3       0.80141    0.95712    -0.01257   1.00
C3       0.58113    0.84666    0.04633   1.00
C3       0.74761    0.84668    -0.02861   1.00
C3       0.53864    0.73697    0.03043   1.00
H1       0.75526    0.96468    0.01361   1.00
H1       0.66722    0.92654    0.03336   1.00
C5       0.64222    0.75114    -0.01489   1.00
C5       0.59997    0.72096    0.00229   1.00
H1       0.83930    1.00724    -0.01171   1.00
H1       0.57830    0.87785    0.05712   1.00
H1       0.74732    0.81490    -0.03971   1.00
H1       0.50180    0.68682    0.02914   1.00
O3       0.63511    0.71350    -0.03208   1.00
O3       0.56207    0.65084    0.00418   1.00
Si1      0.58374    0.70908    -0.05015   1.00
Si1      0.59043    0.61234    0.01881   1.00
C6       0.60722    0.66669    -0.06811   1.00
C6       0.49964    0.65601    -0.04150   1.00
C6       0.60144    0.78976    -0.05915   1.00
C6       0.66713    0.66279    0.03228   1.00
C6       0.52335    0.56828    0.03607   1.00
C6       0.59724    0.55166    0.00380   1.00
C6       0.68577    0.69662    -0.07118   1.00
H2       0.58894    0.61697    -0.06100   1.00
C6       0.57601    0.65113    -0.09004   1.00
H2       0.50650    0.62451    -0.03028   1.00
C6       0.46336    0.68958    -0.03004   1.00
C6       0.44522    0.60477    -0.05678   1.00
H2       0.65667    0.81589    -0.06131   1.00
C6       0.57043    0.79207    -0.08018   1.00
C6       0.58663    0.83710    -0.04516   1.00
C6       0.73254    0.71136    0.01986   1.00
C6       0.66704    0.70441    0.05125   1.00
H2       0.67730    0.62436    0.03873   1.00
H2       0.52433    0.60860    0.04538   1.00
C6       0.44991    0.52912    0.02678   1.00
C6       0.52905    0.51778    0.05103   1.00
H2       0.54527    0.50846    0.00324   1.00
C6       0.61783    0.57142    -0.01881   1.00
C6       0.64273    0.52257    0.01182   1.00
H2       0.71131    0.69942    -0.05686   1.00
H2       0.70970    0.74788    -0.07767   1.00
H2       0.69593    0.66453    -0.08132   1.00
H2       0.57077    0.60319    -0.09556   1.00
H2       0.52589    0.64645    -0.09071   1.00
H2       0.60848    0.69035    -0.10094   1.00
H2       0.41857    0.65107    -0.02185   1.00
H2       0.49636    0.72639    -0.01876   1.00
H2       0.44611    0.71499    -0.04058   1.00
H2       0.46145    0.57125    -0.06357   1.00
H2       0.39675    0.57139    -0.04918   1.00
H2       0.43516    0.63170    -0.06883   1.00
H2       0.51535    0.75750    -0.08045   1.00
H2       0.58002    0.84327    -0.08385   1.00
H2       0.59359    0.77877    -0.09247   1.00
H2       0.53430    0.82670    -0.04673   1.00
H2       0.59490    0.83258    -0.02920   1.00
H2       0.62018    0.89057    -0.04928   1.00
H2       0.73485    0.75946    0.01632   1.00
H2       0.77841    0.72372    0.02856   1.00
H2       0.73568    0.68837    0.00570   1.00
H2       0.71522    0.72489    0.05952   1.00
H2       0.66103    0.74762    0.04712   1.00
H2       0.62698    0.67292    0.06202   1.00
H2       0.41147    0.51344    0.03874   1.00
H2       0.44109    0.56142    0.01634   1.00
H2       0.44077    0.48342    0.01859   1.00
H2       0.57829    0.54154    0.05874   1.00
H2       0.48993    0.50131    0.06282   1.00
H2       0.52186    0.47215    0.04319   1.00
H2       0.66846    0.61614    -0.02029   1.00
H2       0.61698    0.52961    -0.02732   1.00
H2       0.58173    0.58289    -0.02608   1.00
H2       0.63452    0.47843    0.00287   1.00
H2       0.69691    0.56063    0.01094   1.00
H2       0.63072    0.50541    0.02750   1.00
C4       0.16814    0.31088    0.00003   1.00
C4       0.19247    0.36305    0.01517   1.00
C3       0.13556    0.31298    -0.01814   1.00
C3       0.18115    0.41931    0.01453   1.00
C3       0.17561    0.25259    0.00321   1.00
C3       0.23047    0.35947    0.03193   1.00
C2       0.11733    0.20171    -0.02937   1.00
C2       0.24203    0.46565    0.04661   1.00
C3       0.11050    0.25976    -0.03239   1.00
C3       0.20577    0.46955    0.02972   1.00
C3       0.15112    0.20003    -0.01153   1.00
C3       0.25230    0.40905    0.04751   1.00
H1       0.12929    0.35335    -0.02158   1.00
H1       0.15432    0.42521    0.00309   1.00
C5       0.20774    0.24731    0.02105   1.00
C5       0.24598    0.30621    0.03317   1.00
H1       0.08694    0.26387    -0.04518   1.00
H1       0.19655    0.50940    0.02838   1.00
H1       0.15852    0.15943    -0.00931   1.00
H1       0.27562    0.40338    0.06004   1.00
O3       0.20474    0.18653    0.02567   1.00
O3       0.29352    0.30904    0.04688   1.00
Si1      0.14434    0.13158    0.04045   1.00
Si1      0.37403    0.35034    0.04064   1.00
C6       0.16138    0.06416    0.03717   1.00
C6       0.16350    0.16424    0.06535   1.00
C6       0.06165    0.10853    0.03192   1.00
C6       0.39683    0.39210    0.01689   1.00
C6       0.41138    0.41080    0.06013   1.00
C6       0.40450    0.29263    0.04264   1.00
C6       0.17159    0.04819    0.01472   1.00
H2       0.21130    0.08446    0.04433   1.00
C6       0.11500    -0.00724   0.04730   1.00
H2       0.21873    0.19740    0.06465   1.00
C6       0.13464    0.21045    0.07280   1.00
C6       0.15034    0.11375    0.08326   1.00
H2       0.06410    0.09784    0.01587   1.00
C6       0.00058    0.04211    0.04103   1.00
C6       0.03704    0.16224    0.03280   1.00
C6       0.36392    0.34851    -0.00260   1.00
C6       0.39562    0.46013    0.01391   1.00
H2       0.45092    0.40818    0.01588   1.00
H2       0.39290    0.44628    0.05735   1.00
C6       0.38817    0.38384    0.08224   1.00
C6       0.49098    0.45446    0.06056   1.00
H2       0.41433    0.29190    0.05882   1.00
C6       0.35308    0.21695    0.03710   1.00
C6       0.47283    0.31091    0.03162   1.00
H2       0.21159    0.09338    0.00710   1.00
H2       0.12465    0.02950    0.00593   1.00
H2       0.18702    0.00954    0.01412   1.00
H2       0.14565    -0.03041   0.05145   1.00
H2       0.08992    -0.00422   0.06100   1.00
H2       0.07529    -0.04301   0.03705   1.00
H2       0.16142    0.23867    0.08644   1.00
H2       0.14128    0.24846    0.06156   1.00
H2       0.08057    0.18009    0.07657   1.00
H2       0.17714    0.08545    0.08096   1.00
H2       0.16914    0.14099    0.09763   1.00
H2       0.09593    0.07769    0.08508   1.00
H2       0.00123    0.04369    0.05759   1.00
H2       -0.04878   0.03448    0.03596   1.00
H2       0.00165    -0.00308   0.03607   1.00
H2       0.01425    0.16188    0.04742   1.00
H2       0.07740    0.21411    0.03011   1.00
H2       -0.00188   0.15061    0.02122   1.00
H2       0.31361    0.34181    -0.00557   1.00
H2       0.39536    0.37368    -0.01591   1.00
H2       0.35905    0.29828    -0.00162   1.00
H2       0.41998    0.48449    -0.00043   1.00
H2       0.34401    0.45186    0.01345   1.00
H2       0.42365    0.49722    0.02579   1.00
H2       0.40479    0.42648    0.09281   1.00
H2       0.33265    0.35361    0.08338   1.00
H2       0.40928    0.35245    0.08742   1.00
H2       0.51175    0.47717    0.04581   1.00
H2       0.50760    0.49651    0.07137   1.00
H2       0.51379    0.42399    0.06521   1.00
H2       0.33704    0.21114    0.02129   1.00
H2       0.37458    0.18394    0.03988   1.00
H2       0.30782    0.19810    0.04649   1.00
H2       0.49150    0.27701    0.03651   1.00
H2       0.46617    0.30597    0.01517   1.00
H2       0.51299    0.36275    0.03503   1.00
C4       0.14361    0.83296    0.00009   1.00
C4       0.17120    0.80847    0.01526   1.00
C3       0.18275    0.87691    -0.01598   1.00
C3       0.24172    0.83035    0.01696   1.00
C3       0.07322    0.81358    0.00106   1.00
C3       0.12629    0.75921    0.02960   1.00
C2       0.08481    0.88297    -0.02942   1.00
C2       0.22319    0.75767    0.04666   1.00
C3       0.15431    0.90156    -0.03026   1.00
C3       0.26696    0.80520    0.03210   1.00
C3       0.04520    0.83798    -0.01372   1.00
C3       0.15311    0.73671    0.04526   1.00
H1       0.23303    0.89211    -0.01782   1.00
H1       0.27688    0.86551    0.00732   1.00
C5       0.03123    0.76973    0.01673   1.00
C5       0.05498    0.73308    0.02836   1.00
H1       0.18523    0.93361    -0.04146   1.00
H1       0.31837    0.82241    0.03249   1.00
H1       -0.00579   0.82213    -0.01316   1.00
H1       0.12085    0.70479    0.05617   1.00
O3       -0.03318   0.76034    0.01963   1.00
O3       0.00981    0.67627    0.03936   1.00
Si1      -0.04485   0.80794    0.03590   1.00
Si1      -0.01473   0.60076    0.03000   1.00
C6       -0.13068   0.78002    0.02968   1.00
C6       -0.03784   0.78083    0.06039   1.00
C6       0.00762    0.89613    0.03134   1.00
C6       0.02015    0.59532    0.00655   1.00
C6       0.00826    0.56170    0.04899   1.00
C6       -0.10440   0.55761    0.02855   1.00
C6       -0.14697   0.77754    0.00648   1.00
H2       -0.15641   0.72687    0.03461   1.00
C6       -0.17036   0.81222    0.04009   1.00
H2       -0.05107   0.72809    0.05766   1.00
C6       0.03395    0.81566    0.07074   1.00
C6       -0.08805   0.77742    0.07728   1.00
H2       0.00105    0.89964    0.01504   1.00
C6       -0.01325   0.94530    0.04170   1.00
C6       0.08654    0.93096    0.03519   1.00
C6       0.01127    0.63253    -0.01218   1.00
C6       0.09533    0.60960    0.00573   1.00
H2       -0.01021   0.54104    0.00306   1.00
H2       0.06384    0.58872    0.04834   1.00
C6       -0.00969   0.57089    0.07128   1.00
C6       -0.01586   0.48427    0.04635   1.00
H2       -0.12100   0.53905    0.04396   1.00
C6       -0.13730   0.60218    0.02364   1.00
C6       -0.14065   0.49351    0.01445   1.00
H2       -0.13077   0.74644    -0.00188   1.00
H2       -0.12144   0.82861    -0.00017   1.00
H2       -0.20175   0.75488    0.00387   1.00
H2       -0.22417   0.77368    0.04179   1.00
H2       -0.15087   0.83264    0.05508   1.00
H2       -0.16888   0.85343    0.03109   1.00
H2       0.03439    0.78525    0.08357   1.00
H2       0.07366    0.82059    0.06042   1.00
H2       0.04779    0.86612    0.07652   1.00
H2       -0.14110   0.74528    0.07267   1.00
H2       -0.08190   0.75497    0.09125   1.00
H2       -0.07915   0.82824    0.08099   1.00
H2       -0.01941   0.93671    0.05806   1.00
H2       0.02463    0.99898    0.03919   1.00
H2       -0.06038   0.93895    0.03538   1.00
H2       0.09997    0.94792    0.05087   1.00
H2       0.10740    0.89817    0.03187   1.00
H2       0.11372    0.97607    0.02556   1.00
H2       0.05006    0.68634    -0.01253   1.00
H2       0.01614    0.60994    -0.02629   1.00
H2       -0.03858   0.62871    -0.01245   1.00
H2       0.10606    0.59491    -0.00902   1.00
H2       0.13249    0.66329    0.00788   1.00
H2       0.10492    0.58023    0.01703   1.00
H2       0.01654    0.55523    0.08209   1.00
H2       0.00675    0.62422    0.07456   1.00
H2       -0.06429   0.54058    0.07429   1.00
H2       -0.00352   0.47331    0.03132   1.00
H2       0.00963    0.46839    0.05736   1.00
H2       -0.07074   0.45257    0.04876   1.00
H2       -0.12234   0.62605    0.00874   1.00
H2       -0.19292   0.57236    0.02420   1.00
H2       -0.12142   0.64246    0.03484   1.00
H2       -0.19564   0.46551    0.01723   1.00
H2       -0.13279   0.50787    -0.00156   1.00
H2       -0.12232   0.45792    0.01717   1.00
C4       0.13710    0.30906    0.50063   1.00
C4       0.16448    0.36109    0.51582   1.00
C3       0.06874    0.27796    0.49362   1.00
C3       0.12473    0.38276    0.52680   1.00
C3       0.17969    0.28568    0.49210   1.00
C3       0.23555    0.39380    0.52040   1.00
C2       0.08462    0.20179    0.47060   1.00
C2       0.22338    0.46557    0.54664   1.00
C3       0.04307    0.22554    0.47910   1.00
C3       0.15344    0.43400    0.54166   1.00
C3       0.15319    0.23363    0.47719   1.00
C3       0.26290    0.44325    0.53602   1.00
H1       0.03566    0.29264    0.49879   1.00
H1       0.07367    0.36166    0.52443   1.00
C5       0.24855    0.31465    0.49844   1.00
C5       0.27887    0.37666    0.50952   1.00
H1       -0.00693   0.20462    0.47471   1.00
H1       0.12234    0.44801    0.54899   1.00
H1       0.18486    0.21871    0.47080   1.00
H1       0.31293    0.46305    0.54001   1.00
O3       0.28593    0.28453    0.49277   1.00
O3       0.34901    0.41650    0.51081   1.00
Si1      0.28959    0.22901    0.50775   1.00
Si1      0.38818    0.48305    0.49609   1.00
C6       0.33197    0.20246    0.49074   1.00
C6       0.34239    0.27433    0.52839   1.00
C6       0.20855    0.16063    0.51443   1.00
C6       0.33842    0.50268    0.47977   1.00
C6       0.43224    0.55027    0.51331   1.00
C6       0.44884    0.47331    0.48199   1.00
C6       0.30246    0.18542    0.46865   1.00
H2       0.38188    0.24838    0.48931   1.00
C6       0.34689    0.14393    0.49656   1.00
H2       0.37430    0.32488    0.52186   1.00
C6       0.30864    0.28548    0.54762   1.00
C6       0.39308    0.25221    0.53678   1.00
H2       0.18271    0.14585    0.49975   1.00
C6       0.20556    0.09497    0.52329   1.00
C6       0.16120    0.17384    0.52891   1.00
C6       0.28992    0.44690    0.46437   1.00
C6       0.29702    0.53506    0.48875   1.00
H2       0.37721    0.54350    0.47045   1.00
H2       0.39196    0.55538    0.52073   1.00
C6       0.47079    0.53694    0.53084   1.00
C6       0.48329    0.62196    0.50434   1.00
H2       0.49179    0.48983    0.49238   1.00
C6       0.42870    0.39896    0.47600   1.00
C6       0.47856    0.51730    0.46234   1.00
H2       0.30015    0.22819    0.46185   1.00
H2       0.25106    0.14106    0.46848   1.00
H2       0.33455    0.17454    0.45873   1.00
H2       0.39486    0.15356    0.48969   1.00
H2       0.35118    0.13928    0.51283   1.00
H2       0.30754    0.09421    0.49099   1.00
H2       0.34711    0.32563    0.55725   1.00
H2       0.27218    0.30163    0.54371   1.00
H2       0.28277    0.23914    0.55675   1.00
H2       0.42672    0.25250    0.52488   1.00
H2       0.42637    0.28745    0.54847   1.00
H2       0.36573    0.20142    0.54355   1.00
H2       0.23983    0.10729    0.53624   1.00
H2       0.15416    0.05733    0.52829   1.00
H2       0.21884    0.06896    0.51188   1.00
H2       0.17120    0.16948    0.54487   1.00
H2       0.16613    0.22359    0.52693   1.00
H2       0.10771    0.13618    0.52606   1.00
H2       0.24158    0.41057    0.47135   1.00
H2       0.27804    0.47026    0.45167   1.00
H2       0.31273    0.41863    0.45798   1.00
H2       0.27701    0.55296    0.47659   1.00
H2       0.25351    0.49880    0.49769   1.00
H2       0.32854    0.57938    0.49821   1.00
H2       0.48647    0.57625    0.54254   1.00
H2       0.43807    0.48802    0.53826   1.00
H2       0.51642    0.53717    0.52542   1.00
H2       0.45999    0.63653    0.49231   1.00
H2       0.49977    0.66112    0.51611   1.00
H2       0.52888    0.62335    0.49829   1.00
H2       0.38417    0.37550    0.46611   1.00
H2       0.47049    0.39698    0.46837   1.00
H2       0.41675    0.36775    0.48954   1.00
H2       0.52262    0.51453    0.45677   1.00
H2       0.44076    0.49962    0.45017   1.00
H2       0.49602    0.57100    0.46513   1.00
C4       0.69235    0.82821    0.50108   1.00
C4       0.64017    0.80389    0.51622   1.00
C3       0.73971    0.80481    0.49911   1.00
C3       0.63405    0.75848    0.53200   1.00
C3       0.69866    0.87955    0.48725   1.00
C3       0.59093    0.82566    0.51569   1.00
C2       0.79853    0.88239    0.47070   1.00
C2       0.53411    0.75825    0.54654   1.00
C3       0.79159    0.83140    0.48442   1.00
C3       0.58212    0.73576    0.54664   1.00
C3       0.75055    0.90480    0.47229   1.00
C3       0.54078    0.80448    0.53108   1.00
H1       0.73776    0.76760    0.50824   1.00
H1       0.66738    0.74090    0.53341   1.00
C5       0.65293    0.90514    0.48839   1.00
C5       0.59227    0.86890    0.49993   1.00
H1       0.82468    0.81286    0.48381   1.00
H1       0.57984    0.70247    0.55759   1.00
H1       0.75328    0.94025    0.46212   1.00
H1       0.50863    0.82395    0.53123   1.00
O3       0.66598    0.96215    0.47739   1.00
O3       0.53797    0.87959    0.49680   1.00
Si1      0.70773    1.03749    0.48785   1.00
Si1      0.47382    0.82495    0.48307   1.00
C6       0.71764    1.08553    0.46573   1.00
C6       0.65229    1.04410    0.50529   1.00
C6       0.78749    1.05600    0.49788   1.00
C6       0.47562    0.75285    0.47358   1.00
C6       0.40394    0.79826    0.49948   1.00
C6       0.46412    0.87076    0.46300   1.00
C6       0.74316    1.06451    0.44641   1.00
H2       0.66514    1.07204    0.46236   1.00
C6       0.75929    1.16556    0.46613   1.00
H2       0.60235    1.00787    0.49910   1.00
C6       0.65180    1.02123    0.52771   1.00
C6       0.65312    1.11346    0.50694   1.00
H2       0.80920    1.04108    0.48544   1.00
C6       0.84019    1.13260    0.50250   1.00
C6       0.79017    1.01682    0.51722   1.00
C6       0.53750    0.76506    0.46008   1.00
C6       0.46164    0.69290    0.48830   1.00
H2       0.43164    0.73034    0.46343   1.00
H2       0.41169    0.76781    0.51086   1.00
C6       0.40048    0.85588    0.51163   1.00
C6       0.33125    0.75151    0.49041   1.00
H2       0.43610    0.89345    0.46978   1.00
C6       0.53090    0.93225    0.45455   1.00
C6       0.42163    0.82981    0.44406   1.00
H2       0.71030    1.01056    0.44283   1.00
H2       0.79504    1.07389    0.44849   1.00
H2       0.74291    1.09309    0.43308   1.00
H2       0.73720    1.18614    0.45545   1.00
H2       0.75982    1.18663    0.48098   1.00
H2       0.81229    1.18577    0.46152   1.00
H2       0.60629    1.01401    0.53568   1.00
H2       0.65077    0.97274    0.52857   1.00
H2       0.69615    1.05947    0.53605   1.00
H2       0.64363    1.12943    0.49226   1.00
H2       0.61296    1.10928    0.51708   1.00
H2       0.70179    1.15360    0.51289   1.00
H2       0.81799    1.15529    0.51230   1.00
H2       0.88608    1.13867    0.50996   1.00
H2       0.85819    1.16230    0.48863   1.00
H2       0.78870    1.04167    0.53124   1.00
H2       0.74886    0.96450    0.51799   1.00
H2       0.83764    1.01518    0.51737   1.00
H2       0.58115    0.77356    0.46921   1.00
H2       0.52393    0.72050    0.45057   1.00
H2       0.55375    0.80839    0.44994   1.00
H2       0.45495    0.64855    0.47975   1.00
H2       0.50348    0.70652    0.49883   1.00
H2       0.41500    0.67568    0.49705   1.00
H2       0.36261    0.83386    0.52377   1.00
H2       0.44927    0.89040    0.51885   1.00
H2       0.38652    0.88610    0.50197   1.00
H2       0.32826    0.70842    0.48211   1.00
H2       0.29323    0.73032    0.50254   1.00
H2       0.31643    0.77994    0.48023   1.00
H2       0.56493    0.91636    0.44797   1.00
H2       0.52016    0.96023    0.44301   1.00
H2       0.55820    0.96794    0.46671   1.00
H2       0.41058    0.86201    0.43423   1.00
H2       0.44916    0.81093    0.43500   1.00
H2       0.37265    0.78642    0.44841   1.00
C4       0.17182    0.86409    0.50106   1.00
C4       0.19615    0.83626    0.51620   1.00
C3       0.19609    0.93495    0.49885   1.00
C3       0.24253    0.87579    0.53176   1.00
C3       0.11955    0.81895    0.48748   1.00
C3       0.17338    0.76501    0.51590   1.00
C2       0.11759    0.91610    0.47070   1.00
C2       0.24177    0.77590    0.54654   1.00
C3       0.16949    0.96026    0.48417   1.00
C3       0.26522    0.84659    0.54641   1.00
C3       0.09429    0.84559    0.47252   1.00
C3       0.19459    0.73612    0.53131   1.00
H1       0.23397    0.97027    0.50779   1.00
H1       0.26085    0.92689    0.53299   1.00
C5       0.09306    0.74753    0.48886   1.00
C5       0.12912    0.72281    0.50037   1.00
H1       0.18869    1.01197    0.48338   1.00
H1       0.29923    0.87778    0.55720   1.00
H1       0.05815    0.81275    0.46252   1.00
H1       0.17445    0.68441    0.53164   1.00
O3       0.03532    0.70368    0.47812   1.00
O3       0.11731    0.65734    0.49742   1.00
Si1      -0.03947   0.67152    0.48886   1.00
Si1      0.17073    0.64626    0.48358   1.00
C6       -0.08872   0.63291    0.46697   1.00
C6       -0.04627   0.60982    0.50647   1.00
C6       -0.05638   0.73399    0.49879   1.00
C6       0.24302    0.71916    0.47371   1.00
C6       0.19722    0.60299    0.50002   1.00
C6       0.12350    0.59020    0.46377   1.00
C6       -0.06797   0.67866    0.44748   1.00
H2       -0.07613   0.59323    0.46366   1.00
C6       -0.16869   0.59556    0.46768   1.00
H2       -0.01084   0.59514    0.50022   1.00
C6       -0.02223   0.63296    0.52878   1.00
C6       -0.11609   0.54195    0.50848   1.00
H2       -0.04154   0.77013    0.48622   1.00
C6       -0.13253   0.71135    0.50367   1.00
C6       -0.01598   0.77637    0.51792   1.00
C6       0.23112    0.76886    0.46012   1.00
C6       0.30387    0.76515    0.48815   1.00
H2       0.26454    0.69672    0.46356   1.00
H2       0.22854    0.64148    0.51122   1.00
C6       0.13962    0.54289    0.51247   1.00
C6       0.24274    0.57567    0.49089   1.00
H2       0.10048    0.53975    0.47073   1.00
C6       0.06224    0.59618    0.45547   1.00
C6       0.16324    0.58717    0.44472   1.00
H2       -0.01428   0.69887    0.44371   1.00
H2       -0.07648   0.72175    0.44948   1.00
H2       -0.09737   0.64949    0.43430   1.00
H2       -0.19026   0.55244    0.45716   1.00
H2       -0.18926   0.57583    0.48264   1.00
H2       -0.18840   0.62875    0.46304   1.00
H2       -0.01534   0.59458    0.53682   1.00
H2       0.02667    0.68004    0.52939   1.00
H2       -0.05968   0.64011    0.53721   1.00
H2       -0.13300   0.51592    0.49391   1.00
H2       -0.11209   0.50604    0.51870   1.00
H2       -0.15550   0.55146    0.51451   1.00
H2       -0.15532   0.66691    0.51365   1.00
H2       -0.13756   0.75192    0.51104   1.00
H2       -0.16278   0.69946    0.48991   1.00
H2       -0.04044   0.75084    0.53207   1.00
H2       0.03611    0.78664    0.51853   1.00
H2       -0.01354   0.82585    0.51794   1.00
H2       0.22367    0.80483    0.46919   1.00
H2       0.27539    0.79895    0.45042   1.00
H2       0.18726    0.74183    0.45016   1.00
H2       0.34809    0.80202    0.47940   1.00
H2       0.29129    0.79427    0.49865   1.00
H2       0.32085    0.73558    0.49694   1.00
H2       0.16173    0.52706    0.52459   1.00
H2       0.10594    0.55814    0.51975   1.00
H2       0.10850    0.49843    0.50300   1.00
H2       0.28577    0.61505    0.48238   1.00
H2       0.26403    0.55889    0.50301   1.00
H2       0.21340    0.53212    0.48090   1.00
H2       0.07852    0.64596    0.44873   1.00
H2       0.03334    0.55712    0.44410   1.00
H2       0.02726    0.58884    0.46774   1.00
H2       0.13017    0.54368    0.43509   1.00
H2       0.18233    0.63325    0.43551   1.00
H2       0.20638    0.58101    0.44897   1.00
C4       0.30695    0.14469    0.99878   1.00
C4       0.36051    0.17185    0.98406   1.00
C3       0.29732    0.18524    1.01337   1.00
C3       0.41332    0.24115    0.98364   1.00
C3       0.26075    0.07290    0.99928   1.00
C3       0.36183    0.12782    0.96879   1.00
C2       0.19946    0.08550    1.02869   1.00
C2       0.46790    0.22250    0.95407   1.00
C3       0.24532    0.15648    1.02799   1.00
C3       0.46520    0.26596    0.96895   1.00
C3       0.20784    0.04502    1.01391   1.00
C3       0.41617    0.15318    0.95466   1.00
H1       0.32767    0.23690    1.01375   1.00
H1       0.41591    0.27555    0.99407   1.00
C5       0.26753    0.02947    0.98512   1.00
C5       0.30937    0.05865    0.96780   1.00
H1       0.24114    0.18829    1.03825   1.00
H1       0.50172    0.31668    0.96928   1.00
H1       0.17393    -0.00633   1.01373   1.00
H1       0.41876    0.12007    0.94465   1.00
O3       0.23050    -0.04020   0.98773   1.00
O3       0.30211    0.01899    0.95101   1.00
Si1      0.26408    -0.07900   0.99994   1.00
Si1      0.25912    0.02191    0.93155   1.00
C6       0.18982    -0.16005   1.00115   1.00
C6       0.32591    -0.08009   0.98394   1.00
C6       0.29335    -0.04553   1.02443   1.00
C6       0.22630    0.07817    0.93256   1.00
C6       0.31792    0.04586    0.91156   1.00
C6       0.19283    -0.06198   0.92693   1.00
C6       0.12323    -0.16092   1.00816   1.00
H2       0.18138    -0.17530   0.98522   1.00
C6       0.18968    -0.22070   1.01274   1.00
H2       0.30760    -0.07643   0.96895   1.00
C6       0.40095    -0.01943   0.98528   1.00
C6       0.33221    -0.14582   0.98335   1.00
H2       0.25015    -0.04241   1.03057   1.00
C6       0.30670    -0.09076   1.03964   1.00
C6       0.35767    0.02749    1.02678   1.00
C6       0.17755    0.07007    0.95048   1.00
C6       0.27582    0.15667    0.92990   1.00
H2       0.19453    0.06407    0.91898   1.00
H2       0.35532    0.09885    0.91492   1.00
C6       0.35959    0.00779    0.91037   1.00
C6       0.29114    0.04513    0.88964   1.00
H2       0.21747    -0.08521   0.91848   1.00
C6       0.16132    -0.10831   0.94594   1.00
C6       0.13122    -0.07209   0.91360   1.00
H2       0.11249    -0.12776   0.99872   1.00
H2       0.12732    -0.14405   1.02389   1.00
H2       0.07882    -0.21211   1.00700   1.00
H2       0.15536    -0.26895   1.00520   1.00
H2       0.23976    -0.21612   1.01339   1.00
H2       0.17138    -0.22549   1.02831   1.00
H2       0.43027    -0.01854   0.97198   1.00
H2       0.40332    0.02976    0.98566   1.00
H2       0.42684    -0.02385   0.99866   1.00
H2       0.28369    -0.19080   0.97948   1.00
H2       0.36855    -0.14192   0.97175   1.00
H2       0.34985    -0.15432   0.99790   1.00
H2       0.34117    -0.10628   1.03311   1.00
H2       0.32915    -0.06406   1.05388   1.00
H2       0.25945    -0.13600   1.04398   1.00
H2       0.40512    0.02602    1.02674   1.00
H2       0.36204    0.06275    1.01499   1.00
H2       0.35541    0.05009    1.04122   1.00
H2       0.20578    0.09622    0.96409   1.00
H2       0.14587    0.09221    0.94645   1.00
H2       0.14305    0.01684    0.95429   1.00
H2       0.24699    0.18326    0.92802   1.00
H2       0.30892    0.17932    0.94297   1.00
H2       0.30772    0.16832    0.91643   1.00
H2       0.40228    0.03379    0.89981   1.00
H2       0.38140    0.00707    0.92509   1.00
H2       0.32832    -0.04476   0.90522   1.00
H2       0.26295    0.07252    0.88888   1.00
H2       0.33382    0.07024    0.87903   1.00
H2       0.25817    -0.00689   0.88423   1.00
H2       0.13708    -0.08887   0.95613   1.00
H2       0.12352    -0.16043   0.94170   1.00
H2       0.20097    -0.11115   0.95438   1.00
H2       0.09925    -0.12562   0.90929   1.00
H2       0.09901    -0.05673   0.92173   1.00
H2       0.14816    -0.04295   0.89954   1.00
C4       0.82858    0.69308    0.99869   1.00
C4       0.80436    0.64078    0.98359   1.00
C3       0.81436    0.74744    0.99852   1.00
C3       0.76884    0.64103    0.96587   1.00
C3       0.87028    0.69205    1.01477   1.00
C3       0.81580    0.58471    0.98620   1.00
C2       0.88228    0.79875    1.02922   1.00
C2       0.75836    0.53389    0.95354   1.00
C3       0.84076    0.79905    1.01329   1.00
C3       0.74590    0.58875    0.95134   1.00
C3       0.89536    0.74390    1.02974   1.00
C3       0.79483    0.53408    0.97096   1.00
H1       0.78421    0.75101    0.98769   1.00
H1       0.75896    0.67941    0.96293   1.00
C5       0.88640    0.63911    1.01584   1.00
C5       0.84859    0.57969    1.00389   1.00
H1       0.82916    0.83736    1.01230   1.00
H1       0.71997    0.59132    0.93891   1.00
H1       0.92363    0.74146    1.04150   1.00
H1       0.80725    0.49664    0.97244   1.00
O3       0.93545    0.64433    1.02926   1.00
O3       0.84817    0.52002    1.00864   1.00
Si1      1.01440    0.67691    1.02175   1.00
Si1      0.78292    0.46031    1.02086   1.00
C6       1.05033    0.68042    1.04579   1.00
C6       1.01847    0.61621    1.00596   1.00
C6       1.04809    0.75906    1.01109   1.00
C6       0.71434    0.47377    1.02668   1.00
C6       0.75421    0.38943    1.00476   1.00
C6       0.81449    0.44317    1.04317   1.00
C6       1.02765    0.71144    1.06335   1.00
H2       1.02829    0.62649    1.04955   1.00
C6       1.12940    0.71237    1.04847   1.00
H2       0.97520    0.56864    1.01134   1.00
C6       1.00690    0.61879    0.98266   1.00
C6       1.08182    0.60615    1.00772   1.00
H2       1.03309    0.78489    1.02222   1.00
C6       1.12758    0.80326    1.00919   1.00
C6       1.02106    0.76767    0.98997   1.00
C6       0.72988    0.53832    1.03936   1.00
C6       0.66400    0.46793    1.00946   1.00
H2       0.68279    0.43050    1.03652   1.00
H2       0.73264    0.40226    0.99184   1.00
C6       0.81054    0.37641    0.99563   1.00
C6       0.69659    0.31924    1.01294   1.00
H2       0.83316    0.40950    1.03816   1.00
C6       0.87731    0.50509    1.05318   1.00
C6       0.76298    0.40459    1.06079   1.00
H2       0.97222    0.68486    1.06492   1.00
H2       1.04535    0.76540    1.06068   1.00
H2       1.04795    0.70697    1.07796   1.00
H2       1.14003    0.68575    1.06050   1.00
H2       1.15453    0.70930    1.03479   1.00
H2       1.15433    0.76596    1.05293   1.00
H2       0.99626    0.57109    0.97535   1.00
H2       0.96336    0.62530    0.97945   1.00
H2       1.05195    0.66002    0.97536   1.00
H2       1.08871    0.59381    1.02322   1.00
H2       1.07568    0.56364    0.99830   1.00
H2       1.12832    0.65175    1.00279   1.00
H2       1.14843    0.77576    1.00106   1.00
H2       1.14352    0.85122    1.00116   1.00
H2       1.15163    0.81815    1.02400   1.00
H2       1.04894    0.76188    0.97734   1.00
H2       0.96751    0.73170    0.98748   1.00
H2       1.02733    0.81868    0.98876   1.00
H2       0.74833    0.58346    1.02984   1.00
H2       0.68363    0.53101    1.04687   1.00
H2       0.76746    0.54909    1.05119   1.00
H2       0.61945    0.46794    1.01588   1.00
H2       0.68735    0.51030    0.99884   1.00
H2       0.64449    0.42058    1.00091   1.00
H2       0.78950    0.33911    0.98332   1.00
H2       0.85252    0.42299    0.98918   1.00
H2       0.83160    0.35693    1.00697   1.00
H2       0.65387    0.32301    1.01910   1.00
H2       0.67626    0.28167    1.00068   1.00
H2       0.71568    0.29916    1.02471   1.00
H2       0.86582    0.54412    1.05821   1.00
H2       0.89611    0.48946    1.06620   1.00
H2       0.91886    0.52841    1.04234   1.00
H2       0.78623    0.38792    1.07232   1.00
H2       0.74672    0.43718    1.06825   1.00
H2       0.71768    0.35895    1.05536   1.00
C4       0.86409    0.17183    0.99895   1.00
C4       0.83625    0.19616    0.98380   1.00
C3       0.93496    0.19624    1.00120   1.00
C3       0.87583    0.24270    0.96828   1.00
C3       0.81893    0.11940    1.01249   1.00
C3       0.76496    0.17321    0.98406   1.00
C2       0.91610    0.11759    1.02930   1.00
C2       0.77590    0.24177    0.95346   1.00
C3       0.96027    0.16964    1.01587   1.00
C3       0.84663    0.26539    0.95363   1.00
C3       0.84556    0.09414    1.02744   1.00
C3       0.73609    0.19443    0.96865   1.00
H1       0.97029    0.23424    0.99228   1.00
H1       0.92695    0.26115    0.96708   1.00
C5       0.74749    0.09276    1.01106   1.00
C5       0.72272    0.12878    0.99956   1.00
H1       1.01199    0.18895    1.01669   1.00
H1       0.87784    0.29952    0.94287   1.00
H1       0.81270    0.05788    1.03741   1.00
H1       0.68437    0.17417    0.96829   1.00
O3       0.70366    0.03489    1.02175   1.00
O3       0.65717    0.11678    1.00247   1.00
Si1      0.67175    -0.03980   1.01096   1.00
Si1      0.64582    0.16998    1.01633   1.00
C6       0.63306    -0.08926   1.03281   1.00
C6       0.61011    -0.04663   0.99332   1.00
C6       0.73442    -0.05644   1.00106   1.00
C6       0.71855    0.24230    1.02626   1.00
C6       0.60253    0.19644    0.99989   1.00
C6       0.58966    0.12252    1.03609   1.00
C6       0.67867    -0.06856   1.05233   1.00
H2       0.59326    -0.07682   1.03611   1.00
C6       0.59589    -0.16921   1.03205   1.00
H2       0.59526    -0.01134   0.99958   1.00
C6       0.63338    -0.02239   0.97104   1.00
C6       0.54235    -0.11653   0.99126   1.00
H2       0.77048    -0.04161   1.01365   1.00
C6       0.71201    -0.13250   0.99613   1.00
C6       0.77690    -0.01583   0.98196   1.00
C6       0.76825    0.23046    1.03987   1.00
C6       0.76453    0.30331    1.01187   1.00
H2       0.69593    0.26365    1.03641   1.00
H2       0.64108    0.22791    0.98871   1.00
C6       0.54260    0.13885    0.98738   1.00
C6       0.57498    0.24175    1.00902   1.00
H2       0.53926    0.09943    1.02910   1.00
C6       0.59577    0.06129    1.04437   1.00
C6       0.58637    0.16205    1.05516   1.00
H2       0.69873    -0.01492   1.05614   1.00
H2       0.72186    -0.07692   1.05035   1.00
H2       0.64945    -0.09810   1.06549   1.00
H2       0.55269    -0.19096   1.04254   1.00
H2       0.57631    -0.18970   1.01708   1.00
H2       0.62915    -0.18884   1.03669   1.00
H2       0.59499    -0.01556   0.96298   1.00
H2       0.68039    0.02657    0.97047   1.00
H2       0.64071    -0.05970   0.96260   1.00
H2       0.51623    -0.13360   1.00580   1.00
H2       0.50646    -0.11256   0.98102   1.00
H2       0.55204    -0.15581   0.98521   1.00
H2       0.66764    -0.15531   0.98612   1.00
H2       0.75270    -0.13736   0.98877   1.00
H2       0.70009    -0.16285   1.00987   1.00
H2       0.75150    -0.04021   0.96779   1.00
H2       0.78704    0.03623    0.98138   1.00
H2       0.82644    -0.01326   0.98196   1.00
H2       0.80435    0.22319    1.03081   1.00
H2       0.79818    0.27468    1.04961   1.00
H2       0.74123    0.18650    1.04980   1.00
H2       0.80126    0.34750    1.02066   1.00
H2       0.79381    0.29091    1.00138   1.00
H2       0.73494    0.32024    1.00308   1.00
H2       0.52678    0.16097    0.97526   1.00
H2       0.55803    0.10531    0.98009   1.00
H2       0.49810    0.10758    0.99681   1.00
H2       0.61422    0.28477    1.01757   1.00
H2       0.55820    0.26305    0.99691   1.00
H2       0.53137    0.21225    1.01898   1.00
H2       0.64552    0.07764    1.05114   1.00
H2       0.55665    0.03224    1.05571   1.00
H2       0.58861    0.02643    1.03208   1.00
H2       0.54284    0.12882    1.06475   1.00
H2       0.63240    0.18117    1.06440   1.00
H2       0.58012    0.20513    1.05093   1.00
C4       0.52374    1.02249    0.83330   1.00
C4       0.49595    0.97034    0.81815   1.00
C3       0.48788    1.02175    0.85105   1.00
C3       0.42751    0.91561    0.81831   1.00
C3       0.59071    1.07934    0.83055   1.00
C3       0.53847    0.97233    0.80187   1.00
C2       0.58220    1.13159    0.86272   1.00
C2       0.44314    0.86771    0.78670   1.00
C3       0.51611    1.07495    0.86530   1.00
C3       0.40198    0.86534    0.80313   1.00
C3       0.61877    1.13187    0.84529   1.00
C3       0.51093    0.92282    0.78627   1.00
H1       0.44029    0.98242    0.85418   1.00
H1       0.39408    0.91089    0.82939   1.00
C5       0.62932    1.08321    0.81313   1.00
C5       0.60803    1.02396    0.80113   1.00
H1       0.48758    1.07187    0.87778   1.00
H1       0.35224    0.82663    0.80413   1.00
H1       0.66758    1.17138    0.84340   1.00
H1       0.54078    0.92743    0.77406   1.00
O3       0.68873    1.14290    0.80883   1.00
O3       0.65307    1.01931    0.78797   1.00
Si1      0.68694    1.19900    0.79366   1.00
Si1      0.68930    0.97580    0.79492   1.00
C6       0.77196    1.26447    0.79754   1.00
C6       0.67491    1.16613    0.76882   1.00
C6       0.62855    1.22478    0.80135   1.00
C6       0.66678    0.93409    0.81869   1.00
C6       0.66626    0.91501    0.77554   1.00
C6       0.77812    1.03121    0.79363   1.00
C6       0.79602    1.27985    0.82020   1.00
H2       0.80092    1.24264    0.79086   1.00
C6       0.80021    1.33619    0.78728   1.00
H2       0.69520    1.13153    0.76998   1.00
C6       0.60032    1.12188    0.76075   1.00
C6       0.71520    1.21605    0.75106   1.00
H2       0.64025    1.23524    0.81748   1.00
C6       0.63723    1.29217    0.79190   1.00
C6       0.54984    1.17305    0.79985   1.00
C6       0.67700    0.97817    0.83803   1.00
C6       0.59604    0.86745    0.82126   1.00
H2       0.70332    0.91628    0.82025   1.00
H2       0.61176    0.88093    0.77788   1.00
C6       0.67315    0.94221    0.75332   1.00
C6       0.69985    0.86918    0.77579   1.00
H2       0.79008    1.03147    0.77758   1.00
C6       0.80423    1.10739    0.79900   1.00
C6       0.82538    1.01075    0.80535   1.00
H2       0.78845    1.23405    0.82802   1.00
H2       0.76818    1.29999    0.82853   1.00
H2       0.85043    1.31716    0.82121   1.00
H2       0.85425    1.35773    0.78364   1.00
H2       0.77390    1.33411    0.77328   1.00
H2       0.79671    1.37281    0.79726   1.00
H2       0.59918    1.09314    0.74728   1.00
H2       0.56702    1.08442    0.77185   1.00
H2       0.57863    1.15369    0.75652   1.00
H2       0.77004    1.24279    0.75385   1.00
H2       0.70729    1.18856    0.73676   1.00
H2       0.69878    1.25347    0.74880   1.00
H2       0.63789    1.29053    0.77535   1.00
H2       0.59613    1.30155    0.79642   1.00
H2       0.68380    1.33647    0.79714   1.00
H2       0.52930    1.17419    0.78497   1.00
H2       0.53631    1.12067    0.80271   1.00
H2       0.52240    1.18598    0.81103   1.00
H2       0.63423    0.98666    0.84043   1.00
H2       0.68087    0.95236    0.85156   1.00
H2       0.72347    1.02760    0.83729   1.00
H2       0.59369    0.84271    0.83572   1.00
H2       0.55384    0.87751    0.82114   1.00
H2       0.58691    0.82997    0.80949   1.00
H2       0.64706    0.89972    0.74270   1.00
H2       0.64963    0.97395    0.75170   1.00
H2       0.72630    0.97217    0.74858   1.00
H2       0.69564    0.84619    0.79066   1.00
H2       0.67440    0.82727    0.76494   1.00
H2       0.75368    0.89816    0.77160   1.00
H2       0.79287    1.11377    0.81465   1.00
H2       0.85918    1.13892    0.79667   1.00
H2       0.78000    1.12754    0.78918   1.00
H2       0.87867    1.04326    0.80088   1.00
H2       0.82225    1.01592    0.82173   1.00
H2       0.81228    0.95838    0.80211   1.00
C4       -0.02268   0.50037    0.83324   1.00
C4       0.02940    0.52486    0.81807   1.00
C3       -0.02747   0.45645    0.84932   1.00
C3       0.07806    0.50300    0.81638   1.00
C3       -0.07370   0.51973    0.83227   1.00
C3       0.03373    0.57410    0.80373   1.00
C2       -0.13150   0.45036    0.86275   1.00
C2       0.13220    0.57566    0.78667   1.00
C3       -0.08057   0.43179    0.86360   1.00
C3       0.12845    0.52815    0.80123   1.00
C3       -0.12613   0.49533    0.84704   1.00
C3       0.08305    0.59660    0.78806   1.00
H1       0.00761    0.44126    0.85116   1.00
H1       0.07806    0.46786    0.82601   1.00
C5       -0.07186   0.56356    0.81659   1.00
C5       -0.01146   0.60021    0.80496   1.00
H1       -0.08168   0.39976    0.87480   1.00
H1       0.16265    0.51095    0.80085   1.00
H1       -0.16128   0.51116    0.84648   1.00
H1       0.08271    0.62851    0.77715   1.00
O3       -0.12689   0.57293    0.81369   1.00
O3       0.00016    0.65701    0.79396   1.00
Si1      -0.18616   0.52530    0.79742   1.00
Si1      0.05111    0.73252    0.80331   1.00
C6       -0.24409   0.55319    0.80363   1.00
C6       -0.15204   0.55239    0.77292   1.00
C6       -0.22186   0.43711    0.80199   1.00
C6       0.09144    0.73800    0.82676   1.00
C6       0.11316    0.77159    0.78431   1.00
C6       0.00457    0.77566    0.80475   1.00
C6       -0.25790   0.55569    0.82683   1.00
H2       -0.21668   0.60634    0.79870   1.00
C6       -0.31597   0.52096    0.79322   1.00
H2       -0.11254   0.60514    0.77565   1.00
C6       -0.11506   0.51757    0.76258   1.00
C6       -0.19885   0.55576    0.75604   1.00
H2       -0.23193   0.43362    0.81828   1.00
C6       -0.29189   0.38792    0.79163   1.00
C6       -0.17775   0.40230    0.79814   1.00
C6       0.04535    0.70080    0.84549   1.00
C6       0.15235    0.72375    0.82758   1.00
H2       0.11533    0.79228    0.83025   1.00
H2       0.14174    0.74458    0.78497   1.00
C6       0.08602    0.76237    0.76202   1.00
C6       0.16645    0.84903    0.78695   1.00
H2       0.00651    0.79419    0.78934   1.00
C6       -0.07290   0.73107    0.80966   1.00
C6       0.03240    0.83977    0.81884   1.00
H2       -0.21060   0.58682    0.83519   1.00
H2       -0.28343   0.50463    0.83348   1.00
H2       -0.29004   0.57833    0.82944   1.00
H2       -0.33126   0.55949    0.79152   1.00
H2       -0.31690   0.50053    0.77823   1.00
H2       -0.35570   0.47976    0.80222   1.00
H2       -0.08422   0.54798    0.74975   1.00
H2       -0.08027   0.51266    0.77291   1.00
H2       -0.15168   0.46709    0.75680   1.00
H2       -0.21978   0.58789    0.76064   1.00
H2       -0.17025   0.57821    0.74207   1.00
H2       -0.24077   0.50493    0.75233   1.00
H2       -0.28946   0.39649    0.77527   1.00
H2       -0.30768   0.33424    0.79414   1.00
H2       -0.33268   0.39425    0.79794   1.00
H2       -0.18126   0.38533    0.78247   1.00
H2       -0.12410   0.43510    0.80146   1.00
H2       -0.19566   0.35720    0.80778   1.00
H2       0.03035    0.64700    0.84584   1.00
H2       0.07281    0.72341    0.85960   1.00
H2       -0.00069   0.70460    0.84576   1.00
H2       0.17777    0.73846    0.84234   1.00
H2       0.13584    0.67006    0.82544   1.00
H2       0.19130    0.75311    0.81628   1.00
H2       0.12791    0.77803    0.75122   1.00
H2       0.04913    0.70902    0.75875   1.00
H2       0.06171    0.79266    0.75901   1.00
H2       0.18974    0.86000    0.80198   1.00
H2       0.20782    0.86491    0.77594   1.00
H2       0.14325    0.88071    0.78454   1.00
H2       -0.08180   0.70722    0.82456   1.00
H2       -0.09872   0.76088    0.80910   1.00
H2       -0.09729   0.69078    0.79847   1.00
H2       0.00540    0.86775    0.81606   1.00
H2       0.02590    0.82542    0.83486   1.00
H2       0.08631    0.87536    0.81613   1.00
C4       0.49961    0.47693    0.83325   1.00
C4       0.47512    0.50452    0.81807   1.00
C3       0.54335    0.51601    0.84936   1.00
C3       0.49681    0.57501    0.81642   1.00
C3       0.48044    0.40660    0.83223   1.00
C3       0.42606    0.45965    0.80369   1.00
C2       0.54963    0.41813    0.86275   1.00
C2       0.42435    0.55653    0.78667   1.00
C3       0.56801    0.48757    0.86364   1.00
C3       0.47167    0.60026    0.80128   1.00
C3       0.50484    0.37857    0.84700   1.00
C3       0.40358    0.48649    0.78802   1.00
H1       0.55839    0.56623    0.85123   1.00
H1       0.53183    0.61014    0.82609   1.00
C5       0.43681    0.36467    0.81651   1.00
C5       0.40012    0.38836    0.80487   1.00
H1       0.59990    0.51844    0.87487   1.00
H1       0.48874    0.65164    0.80093   1.00
H1       0.48915    0.32762    0.84641   1.00
H1       0.37181    0.45427    0.77708   1.00
O3       0.42764    0.30036    0.81357   1.00
O3       0.34347    0.34317    0.79382   1.00
Si1      0.47552    0.28902    0.79732   1.00
Si1      0.26783    0.31833    0.80312   1.00
C6       0.44779    0.20319    0.80348   1.00
C6       0.44856    0.29615    0.77282   1.00
C6       0.56364    0.34166    0.80196   1.00
C6       0.26205    0.35293    0.82658   1.00
C6       0.22879    0.34132    0.78412   1.00
C6       0.22490    0.22866    0.80450   1.00
C6       0.44515    0.18671    0.82667   1.00
H2       0.39468    0.17737    0.79851   1.00
C6       0.48027    0.16378    0.79307   1.00
H2       0.39575    0.28273    0.77551   1.00
C6       0.48330    0.36802    0.76253   1.00
C6       0.44547    0.24616    0.75591   1.00
H2       0.56702    0.33497    0.81825   1.00
C6       0.61306    0.32109    0.79161   1.00
C6       0.59830    0.42060    0.79817   1.00
C6       0.29918    0.34402    0.84533   1.00
C6       0.27609    0.42802    0.82745   1.00
H2       0.20775    0.32240    0.83003   1.00
H2       0.25567    0.39689    0.78481   1.00
C6       0.23827    0.32363    0.76183   1.00
C6       0.15129    0.31695    0.78671   1.00
H2       0.20651    0.21216    0.78907   1.00
C6       0.26961    0.19592    0.80942   1.00
C6       0.16068    0.19213    0.81854   1.00
H2       0.41385    0.20270    0.83503   1.00
H2       0.49615    0.21231    0.83336   1.00
H2       0.42261    0.13192    0.82924   1.00
H2       0.44186    0.10994    0.79132   1.00
H2       0.50080    0.18344    0.77810   1.00
H2       0.52146    0.16531    0.80209   1.00
H2       0.45295    0.36847    0.74968   1.00
H2       0.48801    0.40759    0.77287   1.00
H2       0.53386    0.38206    0.75678   1.00
H2       0.41342    0.19305    0.76047   1.00
H2       0.42309    0.25235    0.74193   1.00
H2       0.49639    0.25525    0.75222   1.00
H2       0.60463    0.31506    0.77525   1.00
H2       0.66668    0.35906    0.79417   1.00
H2       0.60680    0.27396    0.79790   1.00
H2       0.61537    0.43421    0.78251   1.00
H2       0.56535    0.44128    0.80148   1.00
H2       0.64330    0.44780    0.80784   1.00
H2       0.35294    0.38292    0.84573   1.00
H2       0.27640    0.34868    0.85943   1.00
H2       0.29552    0.29424    0.84558   1.00
H2       0.26120    0.43855    0.84220   1.00
H2       0.32976    0.46531    0.82535   1.00
H2       0.24674    0.43759    0.81614   1.00
H2       0.22259    0.34986    0.75102   1.00
H2       0.29167    0.34025    0.75858   1.00
H2       0.20812    0.26905    0.75877   1.00
H2       0.14014    0.32910    0.80174   1.00
H2       0.13540    0.34244    0.77570   1.00
H2       0.11975    0.26208    0.78425   1.00
H2       0.29333    0.21081    0.82434   1.00
H2       0.23993    0.14030    0.80881   1.00
H2       0.31001    0.21201    0.79825   1.00
H2       0.13285    0.13716    0.81573   1.00
H2       0.17490    0.19987    0.83457   1.00
H2       0.12500    0.21033    0.81582   1.00
C4       0.36087    0.19800    0.33499   1.00
C4       0.30717    0.16971    0.34965   1.00
C3       0.38330    0.26166    0.32525   1.00
C3       0.26649    0.19916    0.35467   1.00
C3       0.39364    0.16050    0.32940   1.00
C3       0.29294    0.10866    0.36003   1.00
C2       0.46749    0.25012    0.30475   1.00
C2       0.19849    0.10854    0.37915   1.00
C3       0.43487    0.28686    0.31046   1.00
C3       0.21406    0.16980    0.36915   1.00
C3       0.44643    0.18740    0.31473   1.00
C3       0.23799    0.07833    0.37393   1.00
H1       0.36300    0.29169    0.32866   1.00
H1       0.27346    0.24256    0.34786   1.00
C5       0.37367    0.09651    0.33857   1.00
C5       0.33311    0.07782    0.35637   1.00
H1       0.44862    0.33298    0.30383   1.00
H1       0.18670    0.19367    0.37229   1.00
H1       0.47077    0.16083    0.31128   1.00
H1       0.22568    0.03235    0.38026   1.00
O3       0.39710    0.05551    0.33080   1.00
O3       0.32928    0.02720    0.36896   1.00
Si1      0.35156    -0.00293   0.31406   1.00
Si1      0.37531    0.04905    0.38957   1.00
C6       0.41298    -0.02640   0.30800   1.00
C6       0.28147    -0.06915   0.32693   1.00
C6       0.33041    0.02958    0.29265   1.00
C6       0.42582    0.13682    0.39526   1.00
C6       0.31446    0.00844    0.40879   1.00
C6       0.42660    0.01091    0.38851   1.00
C6       0.48688    0.03391    0.30375   1.00
H2       0.41672    -0.04940   0.32215   1.00
C6       0.39901    -0.08062   0.29106   1.00
H2       0.30097    -0.06309   0.34238   1.00
C6       0.21430    -0.06576   0.32858   1.00
C6       0.25781    -0.14466   0.32095   1.00
H2       0.37945    0.07399    0.28872   1.00
C6       0.30586    -0.01631   0.27320   1.00
C6       0.27829    0.05585    0.29491   1.00
C6       0.47940    0.18413    0.37917   1.00
C6       0.39087    0.17683    0.40344   1.00
H2       0.45582    0.13641    0.40816   1.00
H2       0.28703    0.03662    0.40921   1.00
C6       0.25879    -0.06751   0.40467   1.00
C6       0.34145    0.01087    0.43078   1.00
H2       0.39268    -0.04148   0.39344   1.00
C6       0.45162    0.00430    0.36704   1.00
C6       0.49051    0.03966    0.40271   1.00
H2       0.50611    0.06983    0.31640   1.00
H2       0.48831    0.06205    0.29011   1.00
H2       0.52272    0.01536    0.30166   1.00
H2       0.42380    -0.10993   0.29499   1.00
H2       0.34506    -0.11667   0.28894   1.00
H2       0.41962    -0.05705   0.27636   1.00
H2       0.18081    -0.10063   0.34030   1.00
H2       0.22418    -0.01519   0.33284   1.00
H2       0.18608    -0.08031   0.31431   1.00
H2       0.29947    -0.15556   0.32222   1.00
H2       0.21752    -0.18068   0.33106   1.00
H2       0.23778    -0.15569   0.30550   1.00
H2       0.26325    -0.06700   0.27664   1.00
H2       0.28940    0.00576    0.26123   1.00
H2       0.34692    -0.02144   0.26651   1.00
H2       0.22563    0.01494    0.29299   1.00
H2       0.28114    0.07943    0.30945   1.00
H2       0.28804    0.09422    0.28331   1.00
H2       0.45637    0.20030    0.36753   1.00
H2       0.51948    0.23039    0.38638   1.00
H2       0.50433    0.15951    0.37173   1.00
H2       0.42917    0.22729    0.40891   1.00
H2       0.36153    0.18478    0.39179   1.00
H2       0.35725    0.15110    0.41625   1.00
H2       0.21721    -0.08442   0.41566   1.00
H2       0.23614    -0.07359   0.38963   1.00
H2       0.27938    -0.10186   0.40578   1.00
H2       0.37937    0.06263    0.43523   1.00
H2       0.29967    -0.00702   0.44174   1.00
H2       0.36403    -0.02173   0.43226   1.00
H2       0.48433    0.05385    0.36006   1.00
H2       0.47961    -0.02339   0.36757   1.00
H2       0.40811    -0.02424   0.35714   1.00
H2       0.51172    0.00559    0.40294   1.00
H2       0.53075    0.08969    0.39762   1.00
H2       0.47773    0.04438    0.41835   1.00
C4       0.83285    0.63703    0.33562   1.00
C4       0.85920    0.69063    0.35032   1.00
C3       0.84096    0.57889    0.33694   1.00
C3       0.90148    0.69455    0.36678   1.00
C3       0.79720    0.64177    0.31841   1.00
C3       0.84257    0.74351    0.34868   1.00
C2       0.78099    0.53248    0.30474   1.00
C2       0.91171    0.80154    0.37916   1.00
C3       0.81611    0.52824    0.32188   1.00
C3       0.92651    0.74811    0.38091   1.00
C3       0.77141    0.58949    0.30357   1.00
C3       0.87070    0.79855    0.36258   1.00
H1       0.86496    0.57154    0.34892   1.00
H1       0.91569    0.65884    0.36891   1.00
C5       0.78730    0.69856    0.31617   1.00
C5       0.79853    0.74159    0.33310   1.00
H1       0.82393    0.48760    0.32358   1.00
H1       0.95638    0.74798    0.39261   1.00
H1       0.74430    0.59265    0.29160   1.00
H1       0.86187    0.83820    0.36044   1.00
O3       0.76322    0.70871    0.29808   1.00
O3       0.77111    0.78410    0.33356   1.00
Si1      0.81689    0.75787    0.28076   1.00
Si1      0.70157    0.76076    0.34658   1.00
C6       0.75665    0.73938    0.26127   1.00
C6       0.85208    0.84276    0.28919   1.00
C6       0.87707    0.73356    0.27384   1.00
C6       0.66623    0.68324    0.36022   1.00
C6       0.72548    0.82867    0.36358   1.00
C6       0.64065    0.75981    0.32976   1.00
C6       0.70399    0.66192    0.25781   1.00
H2       0.72687    0.76138    0.26721   1.00
C6       0.77973    0.77038    0.23946   1.00
H2       0.81238    0.83920    0.29935   1.00
C6       0.91886    0.87420    0.30216   1.00
C6       0.86391    0.89915    0.27336   1.00
H2       0.84485    0.67864    0.27155   1.00
C6       0.91664    0.76273    0.25345   1.00
C6       0.93393    0.74334    0.28938   1.00
C6       0.64716    0.61653    0.34820   1.00
C6       0.70116    0.67958    0.38033   1.00
H2       0.61769    0.67715    0.36538   1.00
H2       0.76039    0.82406    0.37400   1.00
C6       0.76709    0.90206    0.35437   1.00
C6       0.66807    0.82797    0.37694   1.00
H2       0.65396    0.81319    0.32879   1.00
C6       0.64342    0.73831    0.30748   1.00
C6       0.56380    0.71928    0.33619   1.00
H2       0.67658    0.63746    0.27175   1.00
H2       0.72919    0.63441    0.25245   1.00
H2       0.66548    0.65518    0.24662   1.00
H2       0.74112    0.77976    0.23267   1.00
H2       0.82763    0.81845    0.23946   1.00
H2       0.78573    0.73584    0.22921   1.00
H2       0.92703    0.92038    0.30993   1.00
H2       0.91663    0.83949    0.31394   1.00
H2       0.96345    0.88822    0.29267   1.00
H2       0.81691    0.88678    0.26537   1.00
H2       0.88091    0.94835    0.28075   1.00
H2       0.90280    0.90617    0.26229   1.00
H2       0.94130    0.81829    0.25306   1.00
H2       0.95604    0.74887    0.25111   1.00
H2       0.88291    0.74188    0.24045   1.00
H2       0.97894    0.79405    0.28836   1.00
H2       0.91717    0.73597    0.30503   1.00
H2       0.95064    0.70650    0.28628   1.00
H2       0.69117    0.60988    0.34603   1.00
H2       0.60901    0.57182    0.35650   1.00
H2       0.62555    0.61559    0.33338   1.00
H2       0.66838    0.63193    0.38839   1.00
H2       0.74934    0.68130    0.37756   1.00
H2       0.71042    0.72062    0.39080   1.00
H2       0.78936    0.94011    0.36645   1.00
H2       0.80941    0.90741    0.34504   1.00
H2       0.73532    0.91493    0.34504   1.00
H2       0.63746    0.77901    0.38451   1.00
H2       0.69034    0.86674    0.38884   1.00
H2       0.63425    0.83899    0.36793   1.00
H2       0.63343    0.68604    0.30647   1.00
H2       0.60676    0.74293    0.29780   1.00
H2       0.69363    0.77153    0.30114   1.00
H2       0.53271    0.73111    0.32612   1.00
H2       0.54366    0.66426    0.33554   1.00
H2       0.55624    0.73235    0.35151   1.00
C4       0.80395    0.16686    0.33560   1.00
C4       0.83128    0.14056    0.35030   1.00
C3       0.73647    0.15574    0.33639   1.00
C3       0.79208    0.09547    0.36615   1.00
C3       0.84563    0.20567    0.31896   1.00
C3       0.90172    0.16017    0.34928   1.00
C2       0.75139    0.21893    0.30475   1.00
C2       0.88995    0.08837    0.37915   1.00
C3       0.71075    0.18070    0.32133   1.00
C3       0.82071    0.07058    0.38030   1.00
C3       0.81914    0.23149    0.30414   1.00
C3       0.92888    0.13222    0.36316   1.00
H1       0.70411    0.12937    0.34795   1.00
H1       0.74147    0.07905    0.36782   1.00
C5       0.91359    0.21867    0.31728   1.00
C5       0.94458    0.20704    0.33434   1.00
H1       0.66138    0.17063    0.32262   1.00
H1       0.79005    0.03859    0.39155   1.00
H1       0.85023    0.26083    0.29259   1.00
H1       0.97826    0.14332    0.36143   1.00
O3       0.94962    0.24602    0.29962   1.00
O3       1.01471    0.23695    0.33551   1.00
Si1      0.94959    0.19564    0.28190   1.00
Si1      1.05710    0.30526    0.34936   1.00
C6       0.99177    0.25878    0.26317   1.00
C6       1.00103    0.16253    0.29043   1.00
C6       0.86691    0.13393    0.27394   1.00
C6       1.01071    0.33607    0.36294   1.00
C6       1.10115    0.28181    0.36649   1.00
C6       1.11755    0.36956    0.33343   1.00
C6       0.96439    0.30946    0.25992   1.00
H2       1.04258    0.28946    0.26970   1.00
C6       1.00357    0.23939    0.24127   1.00
H2       1.03488    0.20163    0.30113   1.00
C6       0.96648    0.09412    0.30264   1.00
C6       1.04902    0.15503    0.27484   1.00
H2       0.84247    0.16460    0.27172   1.00
C6       0.86057    0.09742    0.25319   1.00
C6       0.81958    0.07433    0.28870   1.00
C6       0.96256    0.35400    0.35073   1.00
C6       0.97050    0.29769    0.38250   1.00
H2       1.05120    0.38473    0.36876   1.00
H2       1.06115    0.24462    0.37636   1.00
C6       1.13667    0.24384    0.35721   1.00
C6       1.15481    0.33873    0.38066   1.00
H2       1.15924    0.35854    0.33265   1.00
C6       1.09556    0.36856    0.31097   1.00
C6       1.15030    0.44539    0.34068   1.00
H2       0.96444    0.33457    0.27407   1.00
H2       0.91234    0.28312    0.25399   1.00
H2       0.99639    0.34989    0.24924   1.00
H2       1.05162    0.28011    0.23511   1.00
H2       1.00599    0.19266    0.24092   1.00
H2       0.96366    0.23297    0.23069   1.00
H2       1.00477    0.08692    0.31061   1.00
H2       0.93176    0.09332    0.31419   1.00
H2       0.93846    0.05042    0.29261   1.00
H2       1.08316    0.20348    0.26745   1.00
H2       1.08183    0.13900    0.28233   1.00
H2       1.01959    0.11702    0.26327   1.00
H2       0.89334    0.07483    0.25285   1.00
H2       0.80827    0.05683    0.25019   1.00
H2       0.87372    0.13256    0.24055   1.00
H2       0.82763    0.03081    0.28739   1.00
H2       0.82652    0.08914    0.30453   1.00
H2       0.76600    0.05596    0.28510   1.00
H2       0.91311    0.30902    0.34787   1.00
H2       0.95308    0.38987    0.35925   1.00
H2       0.98446    0.37791    0.33622   1.00
H2       0.95278    0.32797    0.39068   1.00
H2       0.92560    0.24891    0.37904   1.00
H2       1.00215    0.28880    0.39312   1.00
H2       1.15240    0.22132    0.36923   1.00
H2       1.10201    0.20204    0.34731   1.00
H2       1.18193    0.27806    0.34844   1.00
H2       1.13372    0.36680    0.38832   1.00
H2       1.17129    0.31627    0.39251   1.00
H2       1.20013    0.37492    0.37223   1.00
H2       1.05200    0.37649    0.30974   1.00
H2       1.13718    0.40744    0.30187   1.00
H2       1.08131    0.31960    0.30415   1.00
H2       1.19392    0.47896    0.33116   1.00
H2       1.11379    0.46352    0.33992   1.00
H2       1.16920    0.45178    0.35619   1.00
C4       0.80599    0.64371    0.83354   1.00
C4       0.83283    0.69574    0.84873   1.00
C3       0.75257    0.63302    0.82008   1.00
C3       0.80486    0.73812    0.85321   1.00
C3       0.83299    0.59889    0.83176   1.00
C3       0.89097    0.70664    0.86016   1.00
C2       0.75224    0.53521    0.80389   1.00
C2       0.88910    0.79881    0.88001   1.00
C3       0.72614    0.58005    0.80574   1.00
C3       0.83258    0.78867    0.86828   1.00
C3       0.80649    0.54656    0.81694   1.00
C3       0.91632    0.75587    0.87587   1.00
H1       0.73146    0.66355    0.82026   1.00
H1       0.76328    0.73323    0.84574   1.00
C5       0.88647    0.60682    0.84475   1.00
C5       0.92319    0.66804    0.85601   1.00
H1       0.68716    0.57448    0.79651   1.00
H1       0.81060    0.81819    0.87074   1.00
H1       0.82764    0.51601    0.81547   1.00
H1       0.95521    0.76006    0.88477   1.00
O3       0.90450    0.55704    0.84532   1.00
O3       0.98664    0.68659    0.86394   1.00
Si1      0.87028    0.49633    0.86222   1.00
Si1      1.05451    0.74343    0.85198   1.00
C6       0.90341    0.44599    0.85265   1.00
C6       0.90676    0.53233    0.88589   1.00
C6       0.78026    0.45155    0.86168   1.00
C6       1.04341    0.78083    0.82983   1.00
C6       1.09727    0.80675    0.87041   1.00
C6       1.10456    0.70580    0.84659   1.00
C6       0.89598    0.43274    0.82920   1.00
H2       0.95804    0.47852    0.85531   1.00
C6       0.88386    0.37539    0.86249   1.00
H2       0.95561    0.57579    0.88140   1.00
C6       0.87107    0.56246    0.89926   1.00
C6       0.92459    0.48985    0.90085   1.00
H2       0.76961    0.44122    0.84550   1.00
C6       0.74274    0.38046    0.87251   1.00
C6       0.74041    0.48809    0.86888   1.00
C6       1.00076    0.73260    0.81205   1.00
C6       1.02059    0.83549    0.83177   1.00
H2       1.09539    0.80998    0.82401   1.00
H2       1.06522    0.82973    0.87224   1.00
C6       1.10226    0.78106    0.89206   1.00
C6       1.17025    0.86622    0.86503   1.00
H2       1.13148    0.71051    0.86077   1.00
C6       1.06505    0.62790    0.84186   1.00
C6       1.16097    0.73954    0.82988   1.00
H2       0.91844    0.48044    0.82066   1.00
H2       0.84244    0.40217    0.82478   1.00
H2       0.92227    0.40577    0.82430   1.00
H2       0.92685    0.36627    0.86146   1.00
H2       0.87021    0.37235    0.87842   1.00
H2       0.84117    0.33285    0.85474   1.00
H2       0.90551    0.59547    0.91113   1.00
H2       0.85644    0.59378    0.89047   1.00
H2       0.82578    0.52207    0.90671   1.00
H2       0.95840    0.47446    0.89380   1.00
H2       0.95158    0.51978    0.91423   1.00
H2       0.87854    0.44443    0.90612   1.00
H2       0.75967    0.38436    0.88822   1.00
H2       0.68736    0.35872    0.87264   1.00
H2       0.75119    0.34321    0.86463   1.00
H2       0.73105    0.48312    0.88520   1.00
H2       0.76639    0.54207    0.86542   1.00
H2       0.69064    0.46527    0.86142   1.00
H2       0.94623    0.71164    0.81433   1.00
H2       1.01385    0.76058    0.79771   1.00
H2       1.01026    0.69033    0.81010   1.00
H2       1.02537    0.86054    0.81718   1.00
H2       0.96764    0.81324    0.83646   1.00
H2       1.05219    0.87585    0.84245   1.00
H2       1.11892    0.82234    0.90313   1.00
H2       1.05275    0.73997    0.89720   1.00
H2       1.13842    0.76254    0.89250   1.00
H2       1.17125    0.88880    0.85032   1.00
H2       1.18731    0.90706    0.87628   1.00
H2       1.20742    0.84889    0.86484   1.00
H2       1.03370    0.61606    0.82827   1.00
H2       1.09965    0.60784    0.83988   1.00
H2       1.03164    0.60037    0.85445   1.00
H2       1.19492    0.71820    0.83014   1.00
H2       1.13868    0.73111    0.81471   1.00
H2       1.19288    0.79432    0.83221   1.00
C4       0.35897    0.17066    0.83432   1.00
C4       0.30554    0.14416    0.84908   1.00
C3       0.36151    0.21126    0.81756   1.00
C3       0.24630    0.15035    0.84754   1.00
C3       0.41259    0.15516    0.83609   1.00
C3       0.31109    0.10958    0.86644   1.00
C2       0.46698    0.21948    0.80457   1.00
C2       0.19900    0.08782    0.87933   1.00
C3       0.41379    0.23469    0.80303   1.00
C3       0.19478    0.12353    0.86234   1.00
C3       0.46556    0.18035    0.82147   1.00
C3       0.25726    0.08040    0.88073   1.00
H1       0.32558    0.22519    0.81546   1.00
H1       0.23864    0.17415    0.83557   1.00
C5       0.41312    0.11484    0.85249   1.00
C5       0.36996    0.10372    0.86937   1.00
H1       0.41269    0.26344    0.79115   1.00
H1       0.15338    0.13006    0.86053   1.00
H1       0.50468    0.17041    0.82325   1.00
H1       0.26002    0.05207    0.89238   1.00
O3       0.45811    0.09059    0.85233   1.00
O3       0.38258    0.08284    0.88777   1.00
Si1      0.43413    0.01486    0.84320   1.00
Si1      0.42075    0.13938    0.90560   1.00
C6       0.51478    0.02064    0.84392   1.00
C6       0.37771    -0.04527   0.86089   1.00
C6       0.40268    0.00355    0.81815   1.00
C6       0.44152    0.22444    0.90080   1.00
C6       0.36294    0.10661    0.92590   1.00
C6       0.49447    0.13653    0.91245   1.00
C6       0.57564    0.08785    0.83507   1.00
H2       0.52455    0.02258    0.86019   1.00
C6       0.52497    -0.03854   0.83551   1.00
H2       0.39342    -0.01622   0.87500   1.00
C6       0.29970    -0.07125   0.85871   1.00
C6       0.38258    -0.11079   0.86498   1.00
H2       0.44160    0.04979    0.81065   1.00
C6       0.39820    -0.05766   0.80578   1.00
C6       0.33244    -0.00034   0.81402   1.00
C6       0.48758    0.26161    0.88206   1.00
C6       0.38375    0.24335    0.90093   1.00
H2       0.47237    0.25129    0.91401   1.00
H2       0.32044    0.11299    0.92100   1.00
C6       0.33117    0.02853    0.93021   1.00
C6       0.38690    0.14364    0.94682   1.00
H2       0.47563    0.09295    0.92271   1.00
C6       0.53106    0.12054    0.89507   1.00
C6       0.55182    0.19864    0.92435   1.00
H2       0.57983    0.13302    0.84241   1.00
H2       0.56956    0.09207    0.81878   1.00
H2       0.62427    0.08964    0.83749   1.00
H2       0.56381    -0.04218   0.84440   1.00
H2       0.47871    -0.08803   0.83610   1.00
H2       0.54275    -0.02985   0.81981   1.00
H2       0.27259    -0.09612   0.87268   1.00
H2       0.28960    -0.02976   0.85592   1.00
H2       0.27719    -0.10839   0.84646   1.00
H2       0.43389    -0.09791   0.86965   1.00
H2       0.34864    -0.14115   0.87733   1.00
H2       0.36826    -0.14328   0.85154   1.00
H2       0.36920    -0.10560   0.81403   1.00
H2       0.37380    -0.06353   0.79101   1.00
H2       0.44857    -0.04980   0.80238   1.00
H2       0.28953    -0.05218   0.81553   1.00
H2       0.32249    0.03160    0.82404   1.00
H2       0.33118    0.01634    0.79854   1.00
H2       0.45800    0.24935    0.86810   1.00
H2       0.51271    0.31692    0.88399   1.00
H2       0.52764    0.24894    0.87996   1.00
H2       0.40562    0.29872    0.90060   1.00
H2       0.35029    0.22299    0.88783   1.00
H2       0.35255    0.22547    0.91459   1.00
H2       0.28791    0.01084    0.94060   1.00
H2       0.31179    -0.00149   0.91633   1.00
H2       0.36798    0.01677    0.93704   1.00
H2       0.40810    0.19858    0.94536   1.00
H2       0.34379    0.12518    0.95731   1.00
H2       0.42516    0.13428    0.95383   1.00
H2       0.55019    0.15956    0.88330   1.00
H2       0.57375    0.11574    0.90079   1.00
H2       0.49566    0.07223    0.88803   1.00
H2       0.58944    0.18639    0.93037   1.00
H2       0.57881    0.24334    0.91458   1.00
H2       0.53139    0.21265    0.93728   1.00
C4       0.82903    0.18852    0.83449   1.00
C4       0.85546    0.16143    0.84921   1.00
C3       0.78137    0.14844    0.81926   1.00
C3       0.84172    0.09299    0.84906   1.00
C3       0.85196    0.25982    0.83465   1.00
C3       0.89794    0.20461    0.86510   1.00
C2       0.78059    0.24773    0.80462   1.00
C2       0.91211    0.11093    0.87928   1.00
C3       0.75809    0.17723    0.80467   1.00
C3       0.86872    0.06822    0.86378   1.00
C3       0.82688    0.28767    0.82002   1.00
C3       0.92699    0.17946    0.87927   1.00
H1       0.76199    0.09710    0.81838   1.00
H1       0.81204    0.05923    0.83817   1.00
C5       0.89956    0.30277    0.84946   1.00
C5       0.91174    0.27278    0.86668   1.00
H1       0.72400    0.14579    0.79394   1.00
H1       0.85657    0.01810    0.86301   1.00
H1       0.84234    0.33856    0.82067   1.00
H1       0.96075    0.21219    0.88976   1.00
O3       0.93004    0.37255    0.84755   1.00
O3       0.94101    0.31093    0.88396   1.00
Si1      1.00367    0.41513    0.83615   1.00
Si1      0.89191    0.30370    0.90303   1.00
C6       1.00707    0.49470    0.83553   1.00
C6       1.06596    0.41708    0.85263   1.00
C6       1.00383    0.38518    0.81144   1.00
C6       0.80362    0.24493    0.90097   1.00
C6       0.92620    0.27950    0.92311   1.00
C6       0.90553    0.38585    0.90832   1.00
C6       0.94075    0.49346    0.82803   1.00
H2       1.01141    0.50799    0.85160   1.00
C6       1.06749    0.55800    0.82481   1.00
H2       1.04188    0.41073    0.86742   1.00
C6       1.08356    0.35866    0.85101   1.00
C6       1.13646    0.48440    0.85420   1.00
H2       0.95741    0.38080    0.80493   1.00
C6       1.06343    0.43377    0.79698   1.00
C6       0.99856    0.31379    0.80854   1.00
C6       0.76388    0.25316    0.88282   1.00
C6       0.77727    0.16668    0.90290   1.00
H2       0.78330    0.25628    0.91450   1.00
H2       0.91309    0.22746    0.91929   1.00
C6       1.00576    0.32007    0.92515   1.00
C6       0.89693    0.27642    0.94482   1.00
H2       0.95234    0.40965    0.91728   1.00
C6       0.92083    0.43401    0.88975   1.00
C6       0.85086    0.39182    0.92132   1.00
H2       0.89628    0.45799    0.83691   1.00
H2       0.93035    0.47830    0.81211   1.00
H2       0.94520    0.54360    0.82958   1.00
H2       1.07861    0.60482    0.83277   1.00
H2       1.11425    0.55563    0.82447   1.00
H2       1.05535    0.56393    0.80918   1.00
H2       1.11104    0.35748    0.86450   1.00
H2       1.03804    0.30860    0.84995   1.00
H2       1.11593    0.36593    0.83789   1.00
H2       1.13033    0.52769    0.85832   1.00
H2       1.16839    0.48066    0.86601   1.00
H2       1.16452    0.49561    0.83992   1.00
H2       1.11301    0.45038    0.80398   1.00
H2       1.06202    0.40922    0.78255   1.00
H2       1.05985    0.47837    0.79293   1.00
H2       1.04845    0.31740    0.80897   1.00
H2       0.96720    0.27658    0.81986   1.00
H2       0.97593    0.29234    0.79378   1.00
H2       0.76883    0.22935    0.86906   1.00
H2       0.70944    0.22866    0.88628   1.00
H2       0.78105    0.30642    0.87950   1.00
H2       0.72166    0.13802    0.90419   1.00
H2       0.79054    0.14658    0.88978   1.00
H2       0.79686    0.15460    0.91644   1.00
H2       1.02272    0.29417    0.93566   1.00
H2       1.03051    0.32354    0.91062   1.00
H2       1.02449    0.37172    0.93080   1.00
H2       0.84132    0.24712    0.94498   1.00
H2       0.91473    0.25142    0.95539   1.00
H2       0.91337    0.32741    0.95071   1.00
H2       0.87832    0.41429    0.87910   1.00
H2       0.93258    0.48502    0.89443   1.00
H2       0.96511    0.43968    0.88165   1.00
H2       0.86993    0.44453    0.92614   1.00
H2       0.80395    0.37567    0.91274   1.00
H2       0.83804    0.36115    0.93508   1.00
C4       -0.02515   0.46956    0.33242   1.00
C4       0.02696    0.49725    0.31725   1.00
C3       -0.06685   0.39861    0.33613   1.00
C3       0.03839    0.45673    0.30310   1.00
C3       -0.03740   0.51483    0.34441   1.00
C3       0.07054    0.56941    0.31605   1.00
C2       -0.13172   0.41746    0.36267   1.00
C2       0.13242    0.55720    0.28675   1.00
C3       -0.11893   0.37321    0.35076   1.00
C3       0.09007    0.48581    0.28839   1.00
C3       -0.08934   0.48824    0.35935   1.00
C3       0.12039    0.59781    0.30056   1.00
H1       -0.06046   0.36331    0.32837   1.00
H1       0.00924    0.40494    0.30298   1.00
C5       0.00250    0.58635    0.34147   1.00
C5       0.06384    0.61291    0.33016   1.00
H1       -0.14779   0.32138    0.35268   1.00
H1       0.09636    0.45396    0.27866   1.00
H1       -0.09628   0.52140    0.36823   1.00
H1       0.14825    0.64966    0.29908   1.00
O3       -0.01664   0.62898    0.35058   1.00
O3       0.11338    0.68083    0.33185   1.00
Si1      -0.06423   0.65218    0.33822   1.00
Si1      0.17947    0.70140    0.34626   1.00
C6       -0.07968   0.69305    0.35865   1.00
C6       -0.01261   0.71141    0.31959   1.00
C6       -0.14084   0.58268    0.32910   1.00
C6       0.18591    0.63518    0.35837   1.00
C6       0.24846    0.74510    0.32959   1.00
C6       0.18270    0.76017    0.36436   1.00
C6       -0.10166   0.65238    0.37912   1.00
H2       -0.02903   0.73662    0.36149   1.00
C6       -0.12799   0.72370    0.35613   1.00
H2       0.03822    0.73197    0.32611   1.00
C6       -0.00889   0.68402    0.29812   1.00
C6       -0.02139   0.77464    0.31543   1.00
H2       -0.15977   0.54966    0.34243   1.00
C6       -0.19898   0.59728    0.32272   1.00
C6       -0.13828   0.53766    0.31135   1.00
C6       0.12616    0.58553    0.37253   1.00
C6       0.20636    0.58969    0.34566   1.00
H2       0.22946    0.66341    0.36844   1.00
H2       0.24504    0.70524    0.31954   1.00
C6       0.24533    0.79879    0.31534   1.00
C6       0.32175    0.78061    0.33893   1.00
H2       0.20649    0.80872    0.35626   1.00
C6       0.11277    0.74978    0.37180   1.00
C6       0.22675    0.77227    0.38388   1.00
H2       -0.06470   0.63772    0.38402   1.00
H2       -0.15130   0.60599    0.37770   1.00
H2       -0.10510   0.68319    0.39133   1.00
H2       -0.10998   0.76921    0.36557   1.00
H2       -0.13054   0.73837    0.34060   1.00
H2       -0.18012   0.68820    0.36098   1.00
H2       0.03479    0.72274    0.28958   1.00
H2       -0.00227   0.63969    0.29901   1.00
H2       -0.05466   0.67056    0.28927   1.00
H2       -0.01475   0.80382    0.32925   1.00
H2       0.01698    0.80994    0.30472   1.00
H2       -0.07150   0.75913    0.30897   1.00
H2       -0.18057   0.63881    0.31171   1.00
H2       -0.24248   0.55252    0.31596   1.00
H2       -0.21967   0.61012    0.33576   1.00
H2       -0.13942   0.55821    0.29647   1.00
H2       -0.09348   0.53211    0.31170   1.00
H2       -0.18255   0.48623    0.31217   1.00
H2       0.08452    0.54490    0.36397   1.00
H2       0.14380    0.56112    0.38336   1.00
H2       0.10564    0.61182    0.38135   1.00
H2       0.21755    0.55794    0.35565   1.00
H2       0.16586    0.55531    0.33549   1.00
H2       0.25229    0.62006    0.33669   1.00
H2       0.28369    0.81449    0.30335   1.00
H2       0.19581    0.77756    0.30783   1.00
H2       0.25464    0.84445    0.32358   1.00
H2       0.32934    0.74607    0.34870   1.00
H2       0.36015    0.79722    0.32692   1.00
H2       0.33206    0.82565    0.34773   1.00
H2       0.08256    0.70118    0.37957   1.00
H2       0.11926    0.79052    0.38204   1.00
H2       0.08337    0.75073    0.35893   1.00
H2       0.23310    0.81676    0.39227   1.00
H2       0.20292    0.72845    0.39410   1.00
H2       0.27779    0.78203    0.38021   1.00
C4       0.49486    1.02562    0.33227   1.00
C4       0.47053    0.97345    0.31713   1.00
C3       0.47082    1.07242    0.33441   1.00
C3       0.42441    0.96680    0.30150   1.00
C3       0.54688    1.03253    0.34591   1.00
C3       0.49304    0.92477    0.31749   1.00
C2       0.54907    1.13185    0.36263   1.00
C2       0.42491    0.86745    0.28679   1.00
C3       0.49741    1.12432    0.34909   1.00
C3       0.40170    0.91490    0.28686   1.00
C3       0.57214    1.08443    0.36087   1.00
C3       0.47183    0.87466    0.30208   1.00
H1       0.43311    1.07002    0.32542   1.00
H1       0.40628    0.99972    0.30023   1.00
C5       0.57313    0.98739    0.34459   1.00
C5       0.53703    0.92665    0.33308   1.00
H1       0.47839    1.15698    0.34983   1.00
H1       0.36789    0.91222    0.27603   1.00
H1       0.60810    1.08758    0.37091   1.00
H1       0.49180    0.84294    0.30180   1.00
O3       0.63069    1.00106    0.35540   1.00
O3       0.54855    0.87281    0.33607   1.00
Si1      0.70562    1.04345    0.34473   1.00
Si1      0.49480    0.80840    0.34989   1.00
C6       0.75455    1.05390    0.36669   1.00
C6       0.71237    0.98842    0.32717   1.00
C6       0.72296    1.12294    0.33478   1.00
C6       0.42256    0.80933    0.35965   1.00
C6       0.46826    0.73861    0.33346   1.00
C6       0.54165    0.79934    0.36976   1.00
C6       0.73373    1.07904    0.38613   1.00
H2       0.74173    1.00157    0.37001   1.00
C6       0.83455    1.09627    0.36606   1.00
H2       0.67673    0.93835    0.33341   1.00
C6       0.68865    0.98762    0.30484   1.00
C6       0.78208    0.99007    0.32526   1.00
H2       0.70810    1.14435    0.34732   1.00
C6       0.79923    1.17623    0.32997   1.00
C6       0.68288    1.12511    0.31560   1.00
C6       0.43454    0.87100    0.37322   1.00
C6       0.36194    0.79470    0.34514   1.00
H2       0.40078    0.76536    0.36980   1.00
H2       0.43717    0.74594    0.32221   1.00
C6       0.52586    0.73586    0.32108   1.00
C6       0.42241    0.66581    0.34257   1.00
H2       0.56459    0.77176    0.36285   1.00
C6       0.60298    0.86646    0.37810   1.00
C6       0.50159    0.75664    0.38878   1.00
H2       0.67997    1.04573    0.38986   1.00
H2       0.74247    1.13072    0.38411   1.00
H2       0.76292    1.07915    0.39936   1.00
H2       0.85586    1.07457    0.37662   1.00
H2       0.85525    1.09703    0.35113   1.00
H2       0.85439    1.14920    0.37069   1.00
H2       0.68167    0.94230    0.29681   1.00
H2       0.63985    0.98602    0.30416   1.00
H2       0.72630    1.03216    0.29643   1.00
H2       0.79874    0.98084    0.33986   1.00
H2       0.77803    0.95009    0.31506   1.00
H2       0.82168    1.03892    0.31925   1.00
H2       0.82199    1.15444    0.32004   1.00
H2       0.80453    1.22192    0.32257   1.00
H2       0.82934    1.19450    0.34375   1.00
H2       0.70744    1.12393    0.30148   1.00
H2       0.63072    1.08342    0.31494   1.00
H2       0.68065    1.17227    0.31554   1.00
H2       0.44226    0.91448    0.36413   1.00
H2       0.39019    0.85698    0.38288   1.00
H2       0.47826    0.88768    0.38323   1.00
H2       0.31769    0.78753    0.35384   1.00
H2       0.37480    0.83644    0.33463   1.00
H2       0.34490    0.74813    0.33636   1.00
H2       0.50378    0.69793    0.30896   1.00
H2       0.55977    0.78476    0.31382   1.00
H2       0.55675    0.72235    0.33060   1.00
H2       0.37936    0.66233    0.35103   1.00
H2       0.40115    0.62776    0.33045   1.00
H2       0.45151    0.65144    0.35261   1.00
H2       0.58680    0.90010    0.38480   1.00
H2       0.63163    0.85614    0.38952   1.00
H2       0.63815    0.89401    0.36586   1.00
H2       0.53444    0.74605    0.39847   1.00
H2       0.48256    0.78377    0.39796   1.00
H2       0.45839    0.70743    0.38451   1.00
C4       0.53077    0.50515    0.33227   1.00
C4       0.50293    0.52948    0.31713   1.00
C3       0.60162    0.52940    0.33448   1.00
C3       0.54246    0.57584    0.30156   1.00
C3       0.48563    0.45290    0.34586   1.00
C3       0.43168    0.50673    0.31743   1.00
C2       0.58277    0.45092    0.36263   1.00
C2       0.44257    0.57510    0.28679   1.00
C3       0.62693    0.50280    0.34915   1.00
C3       0.51326    0.59853    0.28692   1.00
C3       0.51226    0.42764    0.36081   1.00
C3       0.40279    0.52794    0.30203   1.00
H1       0.63694    0.56726    0.32553   1.00
H1       0.59355    0.59414    0.30033   1.00
C5       0.41421    0.42643    0.34448   1.00
C5       0.38950    0.46249    0.33297   1.00
H1       0.67864    0.52198    0.34994   1.00
H1       0.54444    0.63252    0.27612   1.00
H1       0.47942    0.39151    0.37082   1.00
H1       0.35109    0.50781    0.30170   1.00
O3       0.37035    0.36871    0.35523   1.00
O3       0.32403    0.45071    0.33592   1.00
Si1      0.33816    0.29391    0.34449   1.00
Si1      0.31299    0.50415    0.34976   1.00
C6       0.29956    0.24468    0.36638   1.00
C6       0.27646    0.28711    0.32688   1.00
C6       0.40060    0.27696    0.33456   1.00
C6       0.38591    0.57644    0.35962   1.00
C6       0.26972    0.53065    0.33332   1.00
C6       0.25694    0.45696    0.36958   1.00
C6       0.34533    0.26544    0.38587   1.00
H2       0.25989    0.25729    0.36970   1.00
C6       0.26219    0.16471    0.36568   1.00
H2       0.26179    0.32256    0.33313   1.00
C6       0.29957    0.31112    0.30458   1.00
C6       0.20856    0.21729    0.32489   1.00
H2       0.43676    0.29180    0.34713   1.00
C6       0.37794    0.20080    0.32969   1.00
C6       0.44297    0.31733    0.31543   1.00
C6       0.43561    0.56453    0.37321   1.00
C6       0.43190    0.63727    0.34517   1.00
H2       0.36349    0.59798    0.36977   1.00
H2       0.30821    0.56195    0.32212   1.00
C6       0.20959    0.47305    0.32087   1.00
C6       0.24243    0.57620    0.34245   1.00
H2       0.20648    0.43394    0.36262   1.00
C6       0.26290    0.39569    0.37788   1.00
C6       0.25394    0.49673    0.38862   1.00
H2       0.36556    0.31913    0.38964   1.00
H2       0.38840    0.25690    0.38387   1.00
H2       0.31617    0.23605    0.39906   1.00
H2       0.21907    0.14316    0.37620   1.00
H2       0.24244    0.14413    0.35073   1.00
H2       0.29537    0.14499    0.37032   1.00
H2       0.26120    0.31801    0.29653   1.00
H2       0.34667    0.36001    0.30396   1.00
H2       0.30670    0.27366    0.29615   1.00
H2       0.18255    0.20041    0.33946   1.00
H2       0.17266    0.22130    0.31466   1.00
H2       0.21806    0.17787    0.31885   1.00
H2       0.33348    0.17801    0.31971   1.00
H2       0.41849    0.19574    0.32231   1.00
H2       0.36605    0.17056    0.34344   1.00
H2       0.41743    0.29286    0.30128   1.00
H2       0.45326    0.36943    0.31482   1.00
H2       0.49245    0.31975    0.31540   1.00
H2       0.47156    0.55706    0.36414   1.00
H2       0.46572    0.60881    0.38291   1.00
H2       0.40858    0.52068    0.38317   1.00
H2       0.46879    0.68149    0.35393   1.00
H2       0.46100    0.62467    0.33467   1.00
H2       0.40233    0.65425    0.33639   1.00
H2       0.19376    0.49516    0.30875   1.00
H2       0.22483    0.43935    0.31360   1.00
H2       0.16514    0.44195    0.33035   1.00
H2       0.28182    0.61923    0.35096   1.00
H2       0.22565    0.59748    0.33034   1.00
H2       0.19888    0.54687    0.35245   1.00
H2       0.31269    0.41197    0.38462   1.00
H2       0.22385    0.36682    0.38925   1.00
H2       0.25554    0.36069    0.36561   1.00
H2       0.21045    0.46367    0.39826   1.00
H2       0.30003    0.51581    0.39783   1.00
H2       0.24779    0.53987    0.38437   1.00
C4       0.19051    0.35581    0.16664   1.00
C4       0.16269    0.30364    0.15150   1.00
C3       0.15532    0.35427    0.18464   1.00
C3       0.09473    0.24803    0.15193   1.00
C3       0.25680    0.41349    0.16364   1.00
C3       0.20468    0.30656    0.13494   1.00
C2       0.24892    0.46495    0.19605   1.00
C2       0.10974    0.20103    0.12005   1.00
C3       0.18350    0.40749    0.19888   1.00
C3       0.06915    0.19777    0.13675   1.00
C3       0.28486    0.46604    0.17838   1.00
C3       0.17703    0.25701    0.11935   1.00
H1       0.10826    0.31434    0.18795   1.00
H1       0.06169    0.24262    0.16322   1.00
C5       0.29473    0.41818    0.14598   1.00
C5       0.27380    0.35914    0.13391   1.00
H1       0.15546    0.40381    0.21154   1.00
H1       0.01979    0.15841    0.13795   1.00
H1       0.33321    0.50618    0.17629   1.00
H1       0.20639    0.26224    0.10695   1.00
O3       0.35322    0.47851    0.14149   1.00
O3       0.31867    0.35554    0.12043   1.00
Si1      0.34932    0.53396    0.12654   1.00
Si1      0.35663    0.31329    0.12697   1.00
C6       0.43403    0.60057    0.13007   1.00
C6       0.33645    0.50122    0.10166   1.00
C6       0.29019    0.55817    0.13471   1.00
C6       0.33615    0.27153    0.15074   1.00
C6       0.33355    0.25269    0.10753   1.00
C6       0.44510    0.37004    0.12527   1.00
C6       0.45931    0.61628    0.15261   1.00
H2       0.46338    0.57962    0.12311   1.00
C6       0.46043    0.67211    0.11988   1.00
H2       0.35777    0.46745    0.10255   1.00
C6       0.26156    0.45584    0.09395   1.00
C6       0.37504    0.55149    0.08381   1.00
H2       0.30271    0.56875    0.15080   1.00
C6       0.29695    0.62502    0.12545   1.00
C6       0.21168    0.50530    0.13357   1.00
C6       0.34663    0.31533    0.17016   1.00
C6       0.26626    0.20408    0.15355   1.00
H2       0.37355    0.25472    0.15198   1.00
H2       0.27935    0.21780    0.11012   1.00
C6       0.33864    0.27977    0.08537   1.00
C6       0.36851    0.20811    0.10739   1.00
H2       0.45626    0.37057    0.10914   1.00
C6       0.47014    0.44593    0.13073   1.00
C6       0.49398    0.35082    0.13659   1.00
H2       0.45311    0.57082    0.16032   1.00
H2       0.43122    0.63558    0.16121   1.00
H2       0.51354    0.65436    0.15338   1.00
H2       0.51435    0.69460    0.11595   1.00
H2       0.43308    0.66950    0.10606   1.00
H2       0.45666    0.70824    0.13001   1.00
H2       0.26025    0.42740    0.08038   1.00
H2       0.22936    0.41805    0.10513   1.00
H2       0.23870    0.48682    0.08998   1.00
H2       0.43004    0.57913    0.08632   1.00
H2       0.36683    0.52414    0.06946   1.00
H2       0.35751    0.58813    0.08180   1.00
H2       0.29670    0.62342    0.10890   1.00
H2       0.25547    0.63339    0.13029   1.00
H2       0.34335    0.66983    0.13053   1.00
H2       0.19005    0.50599    0.11884   1.00
H2       0.19932    0.45320    0.13633   1.00
H2       0.18432    0.51748    0.14498   1.00
H2       0.30336    0.32279    0.17289   1.00
H2       0.35188    0.28988    0.18357   1.00
H2       0.39247    0.36523    0.16928   1.00
H2       0.26526    0.17955    0.16794   1.00
H2       0.22338    0.21311    0.15376   1.00
H2       0.25717    0.16683    0.14171   1.00
H2       0.31258    0.23719    0.07477   1.00
H2       0.31408    0.31064    0.08402   1.00
H2       0.39143    0.31056    0.08037   1.00
H2       0.36560    0.18527    0.12219   1.00
H2       0.34307    0.16611    0.09656   1.00
H2       0.42203    0.23795    0.10293   1.00
H2       0.45943    0.45198    0.14648   1.00
H2       0.52486    0.47832    0.12815   1.00
H2       0.44465    0.46534    0.12116   1.00
H2       0.54687    0.38414    0.13188   1.00
H2       0.49166    0.35585    0.15301   1.00
H2       0.48170    0.29875    0.13325   1.00
C4       0.63694    0.83208    0.16436   1.00
C4       0.69046    0.85852    0.14963   1.00
C3       0.57450    0.83167    0.16174   1.00
C3       0.68948    0.89272    0.13169   1.00
C3       0.64623    0.80538    0.18294   1.00
C3       0.74842    0.85050    0.15281   1.00
C2       0.53260    0.78081    0.19530   1.00
C2       0.80142    0.91189    0.12080   1.00
C3       0.52390    0.80711    0.17682   1.00
C3       0.74312    0.91812    0.11757   1.00
C3       0.59404    0.77967    0.19780   1.00
C3       0.80322    0.87903    0.13883   1.00
H1       0.56384    0.84898    0.14878   1.00
H1       0.64998    0.90056    0.12840   1.00
C5       0.70747    0.80427    0.18652   1.00
C5       0.75174    0.81464    0.16999   1.00
H1       0.47999    0.80855    0.17414   1.00
H1       0.73936    0.94189    0.10478   1.00
H1       0.60064    0.75894    0.21082   1.00
H1       0.84621    0.87668    0.14198   1.00
O3       0.72102    0.78925    0.20561   1.00
O3       0.80013    0.79461    0.17133   1.00
Si1      0.76601    0.85089    0.22154   1.00
Si1      0.78435    0.72305    0.16073   1.00
C6       0.75381    0.79920    0.24295   1.00
C6       0.85141    0.89158    0.21322   1.00
C6       0.73267    0.90566    0.22563   1.00
C6       0.70703    0.67591    0.14725   1.00
C6       0.85333    0.74832    0.14406   1.00
C6       0.79081    0.67211    0.17982   1.00
C6       0.67853    0.74167    0.24714   1.00
H2       0.78087    0.77255    0.23859   1.00
C6       0.78341    0.83168    0.26423   1.00
H2       0.85276    0.85109    0.20462   1.00
C6       0.87640    0.95312    0.19825   1.00
C6       0.90934    0.91498    0.22944   1.00
H2       0.67865    0.86955    0.22824   1.00
C6       0.75828    0.95269    0.24483   1.00
C6       0.73605    0.95440    0.20813   1.00
C6       0.63877    0.65363    0.15881   1.00
C6       0.69902    0.70114    0.12584   1.00
H2       0.70676    0.62855    0.14393   1.00
H2       0.84419    0.77658    0.13225   1.00
C6       0.92555    0.79926    0.15282   1.00
C6       0.85997    0.69077    0.13303   1.00
H2       0.84554    0.69162    0.18117   1.00
C6       0.76747    0.67921    0.20148   1.00
C6       0.75771    0.59373    0.17577   1.00
H2       0.65628    0.70860    0.23395   1.00
H2       0.64622    0.76319    0.25101   1.00
H2       0.67611    0.70887    0.25966   1.00
H2       0.79810    0.79942    0.27266   1.00
H2       0.82820    0.88216    0.26317   1.00
H2       0.74603    0.83614    0.27359   1.00
H2       0.92427    0.96407    0.19099   1.00
H2       0.84014    0.94273    0.18604   1.00
H2       0.88549    0.99927    0.20616   1.00
H2       0.90207    0.87255    0.23901   1.00
H2       0.95928    0.93460    0.22227   1.00
H2       0.91173    0.95547    0.23902   1.00
H2       0.81389    0.98278    0.24519   1.00
H2       0.73865    0.98810    0.24537   1.00
H2       0.74033    0.92309    0.25872   1.00
H2       0.78396    1.00288    0.20824   1.00
H2       0.73055    0.93282    0.19312   1.00
H2       0.69496    0.96612    0.20992   1.00
H2       0.62618    0.69418    0.15913   1.00
H2       0.59642    0.60988    0.15131   1.00
H2       0.64032    0.63840    0.17437   1.00
H2       0.65286    0.66205    0.11832   1.00
H2       0.69473    0.74681    0.12673   1.00
H2       0.74135    0.71155    0.11578   1.00
H2       0.96311    0.82078    0.14059   1.00
H2       0.92578    0.84213    0.16051   1.00
H2       0.94303    0.77460    0.16355   1.00
H2       0.81216    0.65367    0.12588   1.00
H2       0.89828    0.71244    0.12099   1.00
H2       0.87575    0.66387    0.14350   1.00
H2       0.71347    0.66358    0.20198   1.00
H2       0.77685    0.64909    0.21261   1.00
H2       0.79620    0.73200    0.20637   1.00
H2       0.77401    0.56981    0.18719   1.00
H2       0.70208    0.56824    0.17627   1.00
H2       0.77266    0.58340    0.16107   1.00
C4       0.16686    0.80395    0.16440   1.00
C4       0.14055    0.83128    0.14970   1.00
C3       0.15568    0.73645    0.16362   1.00
C3       0.09541    0.79206    0.13386   1.00
C3       0.20572    0.84565    0.18103   1.00
C3       0.16022    0.90173    0.15071   1.00
C2       0.21893    0.75139    0.19525   1.00
C2       0.08837    0.88995    0.12085   1.00
C3       0.18064    0.71072    0.17868   1.00
C3       0.07052    0.82070    0.11971   1.00
C3       0.23154    0.81916    0.19585   1.00
C3       0.13227    0.92889    0.13683   1.00
H1       0.12927    0.70407    0.15207   1.00
H1       0.07895    0.74144    0.13220   1.00
C5       0.21879    0.91363    0.18270   1.00
C5       0.20714    0.94461    0.16564   1.00
H1       0.17052    0.66134    0.17740   1.00
H1       0.03849    0.79002    0.10847   1.00
H1       0.26093    0.85026    0.20739   1.00
H1       0.14342    0.97829    0.13855   1.00
O3       0.24619    0.94969    0.20035   1.00
O3       0.23710    1.01474    0.16445   1.00
Si1      0.19588    0.94975    0.21808   1.00
Si1      0.30538    1.05705    0.15059   1.00
C6       0.25907    0.99194    0.23680   1.00
C6       0.16281    1.00122    0.20955   1.00
C6       0.13414    0.86710    0.22606   1.00
C6       0.33611    1.01058    0.13700   1.00
C6       0.28194    1.10110    0.13346   1.00
C6       0.36975    1.11751    0.16649   1.00
C6       0.30971    0.96451    0.24004   1.00
H2       0.28977    1.04273    0.23025   1.00
C6       0.23975    1.00381    0.25869   1.00
H2       0.20190    1.03502    0.19883   1.00
C6       0.09437    0.96669    0.19735   1.00
C6       0.15540    1.04927    0.22512   1.00
H2       0.16479    0.84263    0.22828   1.00
C6       0.09769    0.86085    0.24681   1.00
C6       0.07449    0.81978    0.21131   1.00
C6       0.35402    0.96243    0.14922   1.00
C6       0.29767    0.97034    0.11746   1.00
H2       0.38477    1.05104    0.13118   1.00
H2       0.24472    1.06109    0.12360   1.00
C6       0.24404    1.13670    0.14274   1.00
C6       0.33885    1.15470    0.11926   1.00
H2       0.35877    1.15923    0.16727   1.00
C6       0.36879    1.09556    0.18896   1.00
C6       0.44556    1.15019    0.15924   1.00
H2       0.33478    0.96450    0.22588   1.00
H2       0.28336    0.91247    0.24598   1.00
H2       0.35018    0.99651    0.25070   1.00
H2       0.28052    1.05186    0.26484   1.00
H2       0.19305    1.00627    0.25905   1.00
H2       0.23333    0.96391    0.26928   1.00
H2       0.08719    1.00499    0.18937   1.00
H2       0.09351    0.93193    0.18580   1.00
H2       0.05069    0.93872    0.20739   1.00
H2       0.20387    1.08341    0.23250   1.00
H2       0.13938    1.08210    0.21764   1.00
H2       0.11741    1.01990    0.23671   1.00
H2       0.07514    0.89365    0.24715   1.00
H2       0.05708    0.80857    0.24982   1.00
H2       0.13286    0.87400    0.25945   1.00
H2       0.03100    0.82787    0.21262   1.00
H2       0.08927    0.82667    0.19548   1.00
H2       0.05609    0.76620    0.21492   1.00
H2       0.30902    0.91300    0.15210   1.00
H2       0.38985    0.95289    0.14070   1.00
H2       0.37797    0.98434    0.16372   1.00
H2       0.32789    0.95257    0.10927   1.00
H2       0.24887    0.92547    0.12093   1.00
H2       0.28878    1.00199    0.10684   1.00
H2       0.22152    1.15242    0.13071   1.00
H2       0.20225    1.10208    0.15264   1.00
H2       0.27831    1.18196    0.15149   1.00
H2       0.36687    1.13356    0.11160   1.00
H2       0.31638    1.17118    0.10742   1.00
H2       0.37508    1.20003    0.12769   1.00
H2       0.37668    1.05198    0.19020   1.00
H2       0.40770    1.13719    0.19805   1.00
H2       0.31985    1.08136    0.19579   1.00
H2       0.47918    1.19382    0.16874   1.00
H2       0.46365    1.11365    0.15999   1.00
H2       0.45192    1.16905    0.14372   1.00
C4       1.02287    0.52264    0.66681   1.00
C4       0.97083    0.49520    0.68200   1.00
C3       1.03202    0.48218    0.65208   1.00
C3       0.92682    0.42423    0.68513   1.00
C3       1.06932    0.59439    0.66639   1.00
C3       0.96164    0.54072    0.69484   1.00
C2       1.13146    0.58163    0.63724   1.00
C2       0.86784    0.44371    0.71334   1.00
C3       1.08502    0.51076    0.63777   1.00
C3       0.87632    0.39916    0.70024   1.00
C3       1.12167    0.62238    0.65159   1.00
C3       0.91240    0.51439    0.71054   1.00
H1       1.00029    0.43079    0.65126   1.00
H1       0.93044    0.38865    0.67660   1.00
C5       1.06299    0.63774    0.68069   1.00
C5       1.00195    0.61220    0.69210   1.00
H1       1.08943    0.47891    0.62757   1.00
H1       0.84557    0.34734    0.70168   1.00
H1       1.15343    0.67414    0.65111   1.00
H1       0.90939    0.54758    0.72043   1.00
O3       1.11417    0.70472    0.68242   1.00
O3       0.98518    0.65642    0.70150   1.00
Si1      1.17465    0.72566    0.69914   1.00
Si1      0.92971    0.67219    0.69068   1.00
C6       1.22695    0.81088    0.69119   1.00
C6       1.13919    0.72174    0.72325   1.00
C6       1.21718    0.67855    0.69673   1.00
C6       0.89142    0.62944    0.66780   1.00
C6       0.86672    0.64904    0.70939   1.00
C6       0.96964    0.76109    0.68719   1.00
C6       1.24026    0.82186    0.66778   1.00
H2       1.19569    0.83366    0.69491   1.00
C6       1.29801    0.85806    0.70141   1.00
H2       1.09667    0.72963    0.71954   1.00
C6       1.10735    0.65288    0.73520   1.00
C6       1.18289    0.77798    0.73923   1.00
H2       1.22738    0.68170    0.68045   1.00
C6       1.28813    0.70778    0.70745   1.00
C6       1.17869    0.60064    0.70233   1.00
C6       0.93909    0.63774    0.64955   1.00
C6       0.83511    0.55223    0.66837   1.00
H2       0.86355    0.65486    0.66304   1.00
H2       0.84229    0.59358    0.71002   1.00
C6       0.89290    0.67423    0.73144   1.00
C6       0.80872    0.66586    0.70523   1.00
H2       0.96568    0.78040    0.70200   1.00
C6       1.04750    0.79862    0.68244   1.00
C6       0.93728    0.78904    0.67163   1.00
H2       1.19256    0.79980    0.65925   1.00
H2       1.26956    0.79866    0.66232   1.00
H2       1.26856    0.87612    0.66399   1.00
H2       1.30870    0.91080    0.70168   1.00
H2       1.30058    0.84348    0.71694   1.00
H2       1.33985    0.85838    0.69307   1.00
H2       1.07490    0.65259    0.74754   1.00
H2       1.07506    0.60938    0.72562   1.00
H2       1.14685    0.64489    0.74193   1.00
H2       1.19968    0.82898    0.73333   1.00
H2       1.15332    0.77280    0.75291   1.00
H2       1.22750    0.77466    0.74382   1.00
H2       1.28467    0.71741    0.72352   1.00
H2       1.30838    0.67298    0.70634   1.00
H2       1.32630    0.75474    0.70032   1.00
H2       1.18337    0.59220    0.71840   1.00
H2       1.12472    0.57479    0.69887   1.00
H2       1.20026    0.57437    0.69382   1.00
H2       0.95857    0.60254    0.65061   1.00
H2       0.91115    0.62692    0.63524   1.00
H2       0.98236    0.68930    0.64843   1.00
H2       0.80987    0.53590    0.65363   1.00
H2       0.85595    0.51933    0.67189   1.00
H2       0.79511    0.54212    0.67935   1.00
H2       0.85146    0.64799    0.74239   1.00
H2       0.93300    0.66319    0.73576   1.00
H2       0.91292    0.72892    0.73313   1.00
H2       0.78587    0.64817    0.69029   1.00
H2       0.76775    0.64043    0.71637   1.00
H2       0.82757    0.72057    0.70629   1.00
H2       1.05855    0.78168    0.66819   1.00
H2       1.06904    0.85382    0.68168   1.00
H2       1.07432    0.78884    0.69444   1.00
H2       0.96009    0.84431    0.67311   1.00
H2       0.94517    0.77829    0.65602   1.00
H2       0.88267    0.76705    0.67410   1.00
C4       0.50042    -0.02266   0.66675   1.00
C4       0.52490    0.02941    0.68192   1.00
C3       0.45690    -0.02717   0.65059   1.00
C3       0.50341    0.07839    0.68352   1.00
C3       0.51934    -0.07400   0.66782   1.00
C3       0.57373    0.03342    0.69637   1.00
C2       0.45037    -0.13150   0.63725   1.00
C2       0.57565    0.13220    0.71333   1.00
C3       0.43223    -0.08027   0.63631   1.00
C3       0.52854    0.12877    0.69867   1.00
C3       0.49494    -0.12643   0.65305   1.00
C3       0.59620    0.08275    0.71203   1.00
H1       0.44204    0.00814    0.64868   1.00
H1       0.46857    0.07864    0.67381   1.00
C5       0.56274    -0.07246   0.68359   1.00
C5       0.59946    -0.01211   0.69524   1.00
H1       0.40051    -0.08117   0.62504   1.00
H1       0.51163    0.16321    0.69898   1.00
H1       0.51046    -0.16181   0.65368   1.00
H1       0.62780    0.08218    0.72301   1.00
O3       0.57165    -0.12774   0.68657   1.00
O3       0.65595    -0.00084   0.70635   1.00
Si1      0.52348    -0.18689   0.70279   1.00
Si1      0.73172    0.04978    0.69711   1.00
C6       0.55100    -0.24520   0.69670   1.00
C6       0.55027    -0.15285   0.72731   1.00
C6       0.43544    -0.22211   0.69808   1.00
C6       0.73789    0.09022    0.67363   1.00
C6       0.77073    0.11177    0.71612   1.00
C6       0.77442    0.00278    0.69581   1.00
C6       0.55382    -0.25907   0.67352   1.00
H2       0.60406    -0.21806   0.70172   1.00
C6       0.51820    -0.31711   0.70712   1.00
H2       0.60315    -0.11357   0.72466   1.00
C6       0.51563    -0.11551   0.73754   1.00
C6       0.55300    -0.19985   0.74425   1.00
H2       0.43219    -0.23218   0.68178   1.00
C6       0.38575    -0.29204   0.70840   1.00
C6       0.40098    -0.17761   0.70180   1.00
C6       0.70084    0.04424    0.65487   1.00
C6       0.72411    0.15143    0.67271   1.00
H2       0.79221    0.11382    0.67023   1.00
H2       0.74402    0.14062    0.71538   1.00
C6       0.76095    0.08458    0.73842   1.00
C6       0.84831    0.16471    0.71359   1.00
H2       0.79262    0.00460    0.71125   1.00
C6       0.72954    -0.07464   0.69088   1.00
C6       0.83876    0.03028    0.68182   1.00
H2       0.58532    -0.21181   0.66518   1.00
H2       0.50289    -0.28433   0.66679   1.00
H2       0.57622    -0.29147   0.67100   1.00
H2       0.55646    -0.33271   0.70892   1.00
H2       0.49756    -0.31791   0.72206   1.00
H2       0.47703    -0.35669   0.69807   1.00
H2       0.54591    -0.08478   0.75040   1.00
H2       0.51117    -0.08057   0.72717   1.00
H2       0.46497    -0.15191   0.74325   1.00
H2       0.58496    -0.22106   0.73974   1.00
H2       0.57531    -0.17131   0.75825   1.00
H2       0.50199    -0.24156   0.74790   1.00
H2       0.39400    -0.28967   0.72477   1.00
H2       0.33219    -0.30752   0.70579   1.00
H2       0.39190    -0.33301   0.70214   1.00
H2       0.38376    -0.18103   0.71744   1.00
H2       0.43410    -0.12400   0.69850   1.00
H2       0.35609    -0.19527   0.69209   1.00
H2       0.64713    0.02955    0.65441   1.00
H2       0.72382    0.07164    0.64078   1.00
H2       0.70432    -0.00199   0.65465   1.00
H2       0.73922    0.17685    0.65796   1.00
H2       0.67046    0.13523    0.67476   1.00
H2       0.75344    0.19031    0.68404   1.00
H2       0.77664    0.12650    0.74922   1.00
H2       0.70747    0.04793    0.74162   1.00
H2       0.79091    0.05999    0.74152   1.00
H2       0.85968    0.18801    0.69857   1.00
H2       0.86422    0.20611    0.72460   1.00
H2       0.87968    0.14121    0.71610   1.00
H2       0.70599    -0.08340   0.67594   1.00
H2       0.75906    -0.10075   0.69153   1.00
H2       0.68902    -0.09884   0.70201   1.00
H2       0.86640    0.00299    0.68469   1.00
H2       0.82470    0.02386    0.66578   1.00
H2       0.87454    0.08413    0.68456   1.00
C4       0.47693    0.49961    0.66675   1.00
C4       0.50452    0.47512    0.68193   1.00
C3       0.51601    0.54337    0.65065   1.00
C3       0.57501    0.49683    0.68358   1.00
C3       0.40660    0.48043    0.66777   1.00
C3       0.45964    0.42605    0.69631   1.00
C2       0.41813    0.54964    0.63725   1.00
C2       0.55653    0.42434    0.71333   1.00
C3       0.48757    0.56802    0.63636   1.00
C3       0.60026    0.47168    0.69873   1.00
C3       0.37857    0.50483    0.65299   1.00
C3       0.48648    0.40357    0.71198   1.00
H1       0.56624    0.55842    0.64878   1.00
H1       0.61014    0.53185    0.67391   1.00
C5       0.36466    0.43678    0.68349   1.00
C5       0.38836    0.40010    0.69512   1.00
H1       0.51845    0.59993    0.62514   1.00
H1       0.65164    0.48876    0.69908   1.00
H1       0.32762    0.48913    0.65359   1.00
H1       0.45427    0.37179    0.72292   1.00
O3       0.30035    0.42760    0.68642   1.00
O3       0.34317    0.34343    0.70617   1.00
Si1      0.28899    0.47546    0.70267   1.00
Si1      0.31835    0.26781    0.69686   1.00
C6       0.20316    0.44772    0.69651   1.00
C6       0.29611    0.44849    0.72718   1.00
C6       0.34161    0.56359    0.69804   1.00
C6       0.35296    0.26204    0.67341   1.00
C6       0.34134    0.22877    0.71587   1.00
C6       0.22867    0.22486    0.69548   1.00
C6       0.18669    0.44509    0.67332   1.00
H2       0.17734    0.39461    0.70148   1.00
C6       0.16373    0.48019    0.70692   1.00
H2       0.28270    0.39569    0.72448   1.00
C6       0.36798    0.48324    0.73747   1.00
C6       0.24611    0.44539    0.74408   1.00
H2       0.33494    0.56698    0.68175   1.00
C6       0.32103    0.61299    0.70839   1.00
C6       0.42056    0.59825    0.70183   1.00
C6       0.34406    0.29918    0.65466   1.00
C6       0.42806    0.27610    0.67254   1.00
H2       0.32244    0.20775    0.66995   1.00
H2       0.39691    0.25565    0.71518   1.00
C6       0.32363    0.23822    0.73816   1.00
C6       0.31698    0.15127    0.71327   1.00
H2       0.21217    0.20646    0.71091   1.00
C6       0.19593    0.26957    0.69056   1.00
C6       0.19216    0.16065    0.68143   1.00
H2       0.20269    0.41381    0.66496   1.00
H2       0.21228    0.49609    0.66663   1.00
H2       0.13190    0.42255    0.67074   1.00
H2       0.10989    0.44177    0.70867   1.00
H2       0.18338    0.50071    0.72189   1.00
H2       0.16526    0.52138    0.69790   1.00
H2       0.36842    0.45289    0.75031   1.00
H2       0.40755    0.48796    0.72712   1.00
H2       0.38201    0.53379    0.74322   1.00
H2       0.19300    0.41333    0.73952   1.00
H2       0.25229    0.42300    0.75806   1.00
H2       0.25518    0.49629    0.74777   1.00
H2       0.31499    0.60455    0.72475   1.00
H2       0.35899    0.66661    0.70583   1.00
H2       0.27390    0.60673    0.70209   1.00
H2       0.43415    0.61533    0.71750   1.00
H2       0.44125    0.56532    0.69853   1.00
H2       0.44775    0.64326    0.69216   1.00
H2       0.38295    0.35294    0.65426   1.00
H2       0.34873    0.27641    0.64056   1.00
H2       0.29427    0.29551    0.65441   1.00
H2       0.43860    0.26122    0.65779   1.00
H2       0.46535    0.32977    0.67464   1.00
H2       0.43763    0.24675    0.68385   1.00
H2       0.34986    0.22255    0.74896   1.00
H2       0.34024    0.29162    0.74141   1.00
H2       0.26905    0.20806    0.74121   1.00
H2       0.32914    0.14013    0.69825   1.00
H2       0.34248    0.13538    0.72429   1.00
H2       0.26211    0.11972    0.71573   1.00
H2       0.21082    0.29329    0.67564   1.00
H2       0.14030    0.23988    0.69117   1.00
H2       0.21200    0.30995    0.70173   1.00
H2       0.13719    0.13281    0.68425   1.00
H2       0.19991    0.17488    0.66541   1.00
H2       0.21037    0.12497    0.68416   1.00
C4       0.47463    -0.02913   0.16877   1.00
C4       0.50281    0.02459    0.18343   1.00
C3       0.49898    -0.07529   0.16562   1.00
C3       0.56194    0.04140    0.19507   1.00
C3       0.41968    -0.03699   0.15627   1.00
C3       0.47044    0.06400    0.18682   1.00
C2       0.41713    -0.13431   0.13813   1.00
C2       0.55753    0.13501    0.21245   1.00
C3       0.47132    -0.12619   0.15065   1.00
C3       0.58821    0.09466    0.20932   1.00
C3       0.39163    -0.08948   0.14151   1.00
C3       0.49941    0.11931    0.20062   1.00
H1       0.53737    -0.07342   0.17415   1.00
H1       0.58791    0.01573    0.19345   1.00
C5       0.39292    0.00744    0.15865   1.00
C5       0.40975    0.04849    0.17632   1.00
H1       0.49134    -0.15777   0.14896   1.00
H1       0.63077    0.10412    0.21742   1.00
H1       0.35099    -0.09570   0.13304   1.00
H1       0.47816    0.14974    0.20192   1.00
O3       0.34809    0.00714    0.14447   1.00
O3       0.37045    0.07656    0.18219   1.00
Si1      0.37678    0.06069    0.12551   1.00
Si1      0.31450    0.03971    0.20025   1.00
C6       0.29942    0.02645    0.11190   1.00
C6       0.40074    0.14218    0.13522   1.00
C6       0.44033    0.05595    0.11127   1.00
C6       0.30896    -0.03296   0.21208   1.00
C6       0.33865    0.10500    0.21823   1.00
C6       0.23451    0.02026    0.19035   1.00
C6       0.25965    -0.05299   0.10919   1.00
H2       0.26781    0.03742    0.12197   1.00
C6       0.29601    0.05595    0.09066   1.00
H2       0.36888    0.12962    0.14874   1.00
C6       0.47577    0.18821    0.14273   1.00
C6       0.38457    0.19054    0.12238   1.00
H2       0.41773    0.00104    0.10898   1.00
C6       0.45620    0.08859    0.08958   1.00
C6       0.51263    0.08151    0.12091   1.00
C6       0.29425    -0.09532   0.19843   1.00
C6       0.36554    -0.02404   0.22749   1.00
H2       0.26371    -0.05064   0.22157   1.00
H2       0.38649    0.11194    0.22434   1.00
C6       0.35598    0.17648    0.20973   1.00
C6       0.29023    0.09041    0.23679   1.00
H2       0.23441    0.06833    0.19136   1.00
C6       0.22220    0.00034    0.16747   1.00
C6       0.16898    -0.03373   0.20181   1.00
H2       0.24955    -0.07918   0.12377   1.00
H2       0.28832    -0.06974   0.09980   1.00
H2       0.21010    -0.07048   0.10201   1.00
H2       0.24640    0.05242    0.08869   1.00
H2       0.33486    0.10914    0.08875   1.00
H2       0.30152    0.02750    0.07813   1.00
H2       0.48010    0.22993    0.15216   1.00
H2       0.49297    0.16007    0.15205   1.00
H2       0.51083    0.21090    0.12999   1.00
H2       0.33038    0.16642    0.11878   1.00
H2       0.39716    0.23714    0.13074   1.00
H2       0.41388    0.20564    0.10829   1.00
H2       0.46816    0.14165    0.09013   1.00
H2       0.49933    0.08748    0.08249   1.00
H2       0.41358    0.06041    0.07933   1.00
H2       0.54681    0.13599    0.11848   1.00
H2       0.51114    0.07271    0.13710   1.00
H2       0.53671    0.05493    0.11398   1.00
H2       0.34062    -0.08914   0.19146   1.00
H2       0.27259    -0.14202   0.20748   1.00
H2       0.25784    -0.10380   0.18643   1.00
H2       0.35010    -0.07177   0.23557   1.00
H2       0.41370    -0.00981   0.22004   1.00
H2       0.37480    0.01403    0.23907   1.00
H2       0.38129    0.21579    0.22135   1.00
H2       0.39093    0.19134    0.19685   1.00
H2       0.31040    0.17742    0.20486   1.00
H2       0.27696    0.04212    0.24411   1.00
H2       0.31519    0.13029    0.24827   1.00
H2       0.24324    0.08928    0.23231   1.00
H2       0.22372    -0.04614   0.16430   1.00
H2       0.17319    -0.00697   0.16226   1.00
H2       0.26135    0.04099    0.15836   1.00
H2       0.12371    -0.03356   0.19610   1.00
H2       0.16074    -0.08524   0.19984   1.00
H2       0.17186    -0.02301   0.21801   1.00
C4       1.02616    0.49511    0.16790   1.00
C4       0.97391    0.47086    0.18302   1.00
C3       1.07831    0.47770    0.16740   1.00
C3       0.97216    0.43194    0.20013   1.00
C3       1.02747    0.54015    0.15253   1.00
C3       0.91999    0.48585    0.18106   1.00
C2       1.13201    0.54898    0.13742   1.00
C2       0.86729    0.42500    0.21316   1.00
C3       1.13000    0.50417    0.15266   1.00
C3       0.92000    0.40908    0.21470   1.00
C3       1.07933    0.56529    0.13757   1.00
C3       0.86953    0.46483    0.19635   1.00
H1       1.08012    0.44509    0.17769   1.00
H1       1.00896    0.41942    0.20260   1.00
C5       0.97682    0.55957    0.15216   1.00
C5       0.91695    0.52222    0.16397   1.00
H1       1.16666    0.49016    0.15314   1.00
H1       0.92104    0.38063    0.22667   1.00
H1       1.07853    0.59604    0.12631   1.00
H1       0.83377    0.47969    0.19539   1.00
O3       0.98457    0.61144    0.13952   1.00
O3       0.85892    0.52555    0.15971   1.00
Si1      1.02034    0.68952    0.14806   1.00
Si1      0.79750    0.46359    0.14692   1.00
C6       1.02582    0.72956    0.12461   1.00
C6       0.96139    0.69458    0.16439   1.00
C6       1.10194    0.71824    0.15859   1.00
C6       0.80706    0.39349    0.13987   1.00
C6       0.72693    0.43556    0.16311   1.00
C6       0.78265    0.49999    0.12529   1.00
C6       1.05493    0.70724    0.10644   1.00
H2       0.97222    0.71033    0.12093   1.00
C6       1.06106    0.80926    0.12297   1.00
H2       0.91289    0.65350    0.15870   1.00
C6       0.96312    0.67926    0.18746   1.00
C6       0.95493    0.76022    0.16376   1.00
H2       1.12636    0.70313    0.14701   1.00
C6       1.14909    0.79707    0.16142   1.00
C6       1.10874    0.68709    0.17917   1.00
C6       0.87076    0.40787    0.12693   1.00
C6       0.79861    0.33978    0.15629   1.00
H2       0.76339    0.36483    0.12988   1.00
H2       0.73819    0.41096    0.17556   1.00
C6       0.71715    0.49262    0.17326   1.00
C6       0.65570    0.38137    0.15457   1.00
H2       0.75084    0.52014    0.13088   1.00
C6       0.84625    0.56254    0.11582   1.00
C6       0.74256    0.45176    0.10717   1.00
H2       1.02618    0.65208    0.10417   1.00
H2       1.10833    0.72219    0.10895   1.00
H2       1.05176    0.73035    0.09222   1.00
H2       1.03581    0.82324    0.11134   1.00
H2       1.05928    0.83319    0.13707   1.00
H2       1.11453    0.83265    0.11849   1.00
H2       0.91611    0.66980    0.19497   1.00
H2       0.96715    0.63388    0.18990   1.00
H2       1.00553    0.72222    0.19515   1.00
H2       0.94340    0.77013    0.14849   1.00
H2       0.91319    0.75479    0.17342   1.00
H2       1.00169    0.80477    0.16907   1.00
H2       1.12336    0.81868    0.17012   1.00
H2       1.19652    0.80976    0.16931   1.00
H2       1.16494    0.82304    0.14691   1.00
H2       1.10448    0.71414    0.19229   1.00
H2       1.07093    0.63377    0.18106   1.00
H2       1.15868    0.69070    0.18006   1.00
H2       0.91556    0.42306    0.13637   1.00
H2       0.86128    0.36196    0.11873   1.00
H2       0.88329    0.44748    0.11564   1.00
H2       0.79633    0.29508    0.14915   1.00
H2       0.84097    0.35998    0.16694   1.00
H2       0.75146    0.32104    0.16490   1.00
H2       0.67967    0.47124    0.18552   1.00
H2       0.76461    0.53226    0.18001   1.00
H2       0.69939    0.51681    0.16244   1.00
H2       0.65717    0.33830    0.14769   1.00
H2       0.61799    0.36074    0.16679   1.00
H2       0.63725    0.40364    0.14329   1.00
H2       0.88365    0.54947    0.11029   1.00
H2       0.83213    0.58446    0.10326   1.00
H2       0.87103    0.60233    0.12714   1.00
H2       0.72765    0.47807    0.09617   1.00
H2       0.77347    0.43449    0.09918   1.00
H2       0.69574    0.40697    0.11222   1.00
C4       0.50515    0.53076    0.16772   1.00
C4       0.52949    0.50293    0.18287   1.00
C3       0.52954    0.60163    0.16548   1.00
C3       0.57600    0.54249    0.19840   1.00
C3       0.45276    0.48560    0.15418   1.00
C3       0.50657    0.43164    0.18260   1.00
C2       0.45092    0.58277    0.13737   1.00
C2       0.57510    0.44257    0.21321   1.00
C3       0.50294    0.62694    0.15080   1.00
C3       0.59869    0.51329    0.21305   1.00
C3       0.42750    0.51224    0.13922   1.00
C3       0.52779    0.40276    0.19801   1.00
H1       0.56752    0.63696    0.17440   1.00
H1       0.59442    0.59361    0.19961   1.00
C5       0.42615    0.41417    0.15560   1.00
C5       0.46217    0.38941    0.16710   1.00
H1       0.52223    0.67866    0.14999   1.00
H1       0.63279    0.54450    0.22381   1.00
H1       0.39126    0.47938    0.12925   1.00
H1       0.50756    0.35105    0.19837   1.00
O3       0.36830    0.37034    0.14489   1.00
O3       0.45021    0.32387    0.16418   1.00
Si1      0.29359    0.33837    0.15568   1.00
Si1      0.50346    0.31257    0.15032   1.00
C6       0.24418    0.29970    0.13382   1.00
C6       0.28677    0.27673    0.17331   1.00
C6       0.27690    0.40101    0.16558   1.00
C6       0.57577    0.38534    0.14040   1.00
C6       0.52992    0.26929    0.16677   1.00
C6       0.45604    0.25644    0.13055   1.00
C6       0.26489    0.34534    0.11430   1.00
H2       0.25664    0.25993    0.13051   1.00
C6       0.16422    0.26250    0.13457   1.00
H2       0.32209    0.26191    0.16705   1.00
C6       0.31097    0.29997    0.19559   1.00
C6       0.21688    0.20895    0.17536   1.00
H2       0.29173    0.43709    0.15300   1.00
C6       0.20082    0.37855    0.17050   1.00
C6       0.31747    0.44346    0.18469   1.00
C6       0.56391    0.43504    0.12680   1.00
C6       0.63675    0.43132    0.15481   1.00
H2       0.59715    0.36275    0.13025   1.00
H2       0.56136    0.30782    0.17794   1.00
C6       0.47233    0.20933    0.17926   1.00
C6       0.57528    0.24178    0.15763   1.00
H2       0.43297    0.20603    0.13754   1.00
C6       0.39481    0.26252    0.12227   1.00
C6       0.49561    0.25320    0.11149   1.00
H2       0.31854    0.36543    0.11050   1.00
H2       0.25649    0.38851    0.11629   1.00
H2       0.23537    0.31613    0.10114   1.00
H2       0.14250    0.21931    0.12407   1.00
H2       0.14372    0.24288    0.14954   1.00
H2       0.14458    0.29574    0.12993   1.00
H2       0.31781    0.26158    0.20365   1.00
H2       0.35992    0.34700    0.19617   1.00
H2       0.27363    0.30726    0.20403   1.00
H2       0.19985    0.18284    0.16081   1.00
H2       0.22086    0.17305    0.18560   1.00
H2       0.17758    0.21860    0.18141   1.00
H2       0.17802    0.33417    0.18051   1.00
H2       0.19593    0.41922    0.17786   1.00
H2       0.17049    0.36663    0.15676   1.00
H2       0.29307    0.41805    0.19886   1.00
H2       0.36953    0.45363    0.18527   1.00
H2       0.32002    0.49300    0.18469   1.00
H2       0.55661    0.47111    0.13586   1.00
H2       0.60814    0.46500    0.11707   1.00
H2       0.51998    0.40802    0.11687   1.00
H2       0.68094    0.46808    0.14602   1.00
H2       0.62431    0.46057    0.16530   1.00
H2       0.65369    0.40173    0.16359   1.00
H2       0.49445    0.19350    0.19138   1.00
H2       0.43876    0.22472    0.18655   1.00
H2       0.44109    0.16483    0.16982   1.00
H2       0.61829    0.28105    0.14909   1.00
H2       0.59657    0.22501    0.16974   1.00
H2       0.54580    0.19819    0.14767   1.00
H2       0.41114    0.31228    0.11550   1.00
H2       0.36579    0.22341    0.11093   1.00
H2       0.35992    0.25532    0.13456   1.00
H2       0.46241    0.20967    0.10189   1.00
H2       0.51472    0.29923    0.10225   1.00
H2       0.53870    0.24696    0.11572   1.00
C4       0.63772    0.80840    0.66463   1.00
C4       0.69146    0.83649    0.64998   1.00
C3       0.59504    0.83617    0.66889   1.00
C3       0.71188    0.89853    0.63948   1.00
C3       0.62620    0.74987    0.67597   1.00
C3       0.72707    0.80097    0.64538   1.00
C2       0.53234    0.75063    0.69521   1.00
C2       0.80168    0.89071    0.62089   1.00
C3       0.54406    0.80836    0.68383   1.00
C3       0.76504    0.92461    0.62520   1.00
C3       0.57366    0.72181    0.69071   1.00
C3       0.78239    0.82959    0.63159   1.00
H1       0.59960    0.87728    0.66122   1.00
H1       0.68904    0.92683    0.64199   1.00
C5       0.66704    0.71959    0.67245   1.00
C5       0.70779    0.73744    0.65469   1.00
H1       0.51509    0.83092    0.68635   1.00
H1       0.77721    0.96940    0.61795   1.00
H1       0.56476    0.67870    0.69833   1.00
H1       0.81015    0.80577    0.62944   1.00
O3       0.66353    0.67064    0.68561   1.00
O3       0.73199    0.69603    0.64762   1.00
Si1      0.71708    0.69285    0.70451   1.00
Si1      0.69256    0.64435    0.62879   1.00
C6       0.67857    0.61285    0.71677   1.00
C6       0.79722    0.71369    0.69436   1.00
C6       0.71705    0.75604    0.72019   1.00
C6       0.62225    0.64601    0.61775   1.00
C6       0.75714    0.66810    0.61058   1.00
C6       0.66810    0.56130    0.63712   1.00
C6       0.59928    0.57690    0.71956   1.00
H2       0.68688    0.58139    0.70589   1.00
C6       0.70668    0.60320    0.73753   1.00
H2       0.78289    0.68428    0.68031   1.00
C6       0.84690    0.78930    0.68798   1.00
C6       0.84258    0.69115    0.70621   1.00
H2       0.66259    0.73615    0.72265   1.00
C6       0.74956    0.76597    0.74180   1.00
C6       0.74684    0.83067    0.71189   1.00
C6       0.56117    0.63262    0.63180   1.00
C6       0.63491    0.70670    0.60354   1.00
H2       0.60201    0.60238    0.60748   1.00
H2       0.76725    0.71814    0.60548   1.00
C6       0.82715    0.67932    0.61858   1.00
C6       0.73966    0.62272    0.59116   1.00
H2       0.71435    0.55800    0.63552   1.00
C6       0.64801    0.54564    0.65991   1.00
C6       0.61147    0.49968    0.62488   1.00
H2       0.57338    0.57111    0.70511   1.00
H2       0.58520    0.60587    0.72978   1.00
H2       0.57889    0.52564    0.72583   1.00
H2       0.69973    0.55189    0.73843   1.00
H2       0.76064    0.63918    0.73966   1.00
H2       0.67968    0.60850    0.75050   1.00
H2       0.88738    0.79262    0.67815   1.00
H2       0.82107    0.81080    0.67941   1.00
H2       0.87123    0.82144    0.70120   1.00
H2       0.81549    0.63625    0.70889   1.00
H2       0.88834    0.70246    0.69758   1.00
H2       0.85920    0.71763    0.72074   1.00
H2       0.80147    0.77467    0.74087   1.00
H2       0.75156    0.80920    0.74986   1.00
H2       0.71937    0.72202    0.75142   1.00
H2       0.80169    0.86163    0.71441   1.00
H2       0.73828    0.83285    0.69581   1.00
H2       0.72297    0.85607    0.71967   1.00
H2       0.57042    0.67870    0.63972   1.00
H2       0.51469    0.61529    0.62287   1.00
H2       0.55038    0.59336    0.64307   1.00
H2       0.58789    0.69568    0.59571   1.00
H2       0.65203    0.75396    0.61187   1.00
H2       0.67222    0.71579    0.59172   1.00
H2       0.86681    0.70488    0.60708   1.00
H2       0.84393    0.71188    0.63203   1.00
H2       0.82479    0.63131    0.62241   1.00
H2       0.69225    0.61382    0.58415   1.00
H2       0.77985    0.64785    0.57978   1.00
H2       0.73521    0.57346    0.59459   1.00
H2       0.60339    0.54987    0.66368   1.00
H2       0.63746    0.49459    0.66410   1.00
H2       0.68991    0.58143    0.66938   1.00
H2       0.60839    0.45187    0.62956   1.00
H2       0.56131    0.49443    0.62729   1.00
H2       0.62202    0.50499    0.60864   1.00
C4       0.17086    0.35929    0.66558   1.00
C4       0.14440    0.30580    0.65084   1.00
C3       0.21576    0.36478    0.68144   1.00
C3       0.15517    0.24920    0.65158   1.00
C3       0.15083    0.40983    0.66475   1.00
C3       0.10502    0.30853    0.63434   1.00
C2       0.21944    0.46708    0.69540   1.00
C2       0.08786    0.19890    0.62070   1.00
C3       0.23910    0.41694    0.69601   1.00
C3       0.12823    0.19753    0.63682   1.00
C3       0.17596    0.46278    0.67937   1.00
C3       0.07591    0.25447    0.62012   1.00
H1       0.23301    0.33117    0.68283   1.00
H1       0.18253    0.24362    0.66292   1.00
C5       0.10607    0.40733    0.64928   1.00
C5       0.09435    0.36478    0.63219   1.00
H1       0.27110    0.41803    0.70722   1.00
H1       0.13817    0.15813    0.63803   1.00
H1       0.16266    0.49975    0.67825   1.00
H1       0.04427    0.25501    0.60915   1.00
O3       0.07800    0.44896    0.65047   1.00
O3       0.06842    0.37526    0.61443   1.00
Si1      0.00332    0.42067    0.66098   1.00
Si1      0.12066    0.41577    0.59582   1.00
C6       0.00356    0.49874    0.66103   1.00
C6       -0.05819   0.36191    0.64402   1.00
C6       -0.00137   0.38988    0.68588   1.00
C6       0.20786    0.44179    0.59897   1.00
C6       0.08697    0.35757    0.57564   1.00
C6       0.11131    0.48650    0.58986   1.00
C6       0.07036    0.56217    0.66906   1.00
H2       0.00177    0.50810    0.64485   1.00
C6       -0.05655   0.50452    0.67083   1.00
H2       -0.03202   0.37891    0.62947   1.00
C6       -0.07916   0.28499    0.64589   1.00
C6       -0.12686   0.36197    0.64143   1.00
H2       0.04506    0.43068    0.69278   1.00
C6       -0.06180   0.38142    0.69952   1.00
C6       0.00026    0.32201    0.68930   1.00
C6       0.24659    0.48898    0.61737   1.00
C6       0.23132    0.38747    0.59779   1.00
H2       0.23087    0.47323    0.58554   1.00
H2       0.09742    0.31714    0.57992   1.00
C6       0.00783    0.32145    0.57270   1.00
C6       0.11948    0.38299    0.55422   1.00
H2       0.06571    0.46518    0.58038   1.00
C6       0.09564    0.52082    0.60796   1.00
C6       0.16911    0.54595    0.57726   1.00
H2       0.11524    0.56928    0.66079   1.00
H2       0.07826    0.55679    0.68516   1.00
H2       0.06838    0.60910    0.66714   1.00
H2       -0.06469   0.54156    0.66248   1.00
H2       -0.10450   0.45649    0.67082   1.00
H2       -0.04581   0.52243    0.68651   1.00
H2       -0.10562   0.25697    0.63220   1.00
H2       -0.03515   0.27820    0.64766   1.00
H2       -0.11355   0.26084    0.65869   1.00
H2       -0.11802   0.41223    0.63706   1.00
H2       -0.15819   0.32701    0.62940   1.00
H2       -0.15680   0.34606    0.65540   1.00
H2       -0.11081   0.35004    0.69201   1.00
H2       -0.06334   0.35768    0.71412   1.00
H2       -0.05652   0.43052    0.70329   1.00
H2       -0.05051   0.27702    0.68845   1.00
H2       0.03197    0.31454    0.67849   1.00
H2       0.02052    0.32214    0.70437   1.00
H2       0.23868    0.45979    0.63124   1.00
H2       0.30152    0.51703    0.61451   1.00
H2       0.23116    0.52669    0.62019   1.00
H2       0.28696    0.41242    0.59714   1.00
H2       0.21515    0.35397    0.61094   1.00
H2       0.21241    0.35601    0.58419   1.00
H2       -0.00942   0.27842    0.56224   1.00
H2       -0.01913   0.30085    0.58700   1.00
H2       -0.00815   0.35600    0.56655   1.00
H2       0.17495    0.40727    0.55470   1.00
H2       0.10142    0.34006    0.54368   1.00
H2       0.10584    0.41911    0.54785   1.00
H2       0.13681    0.54212    0.61907   1.00
H2       0.08664    0.56154    0.60284   1.00
H2       0.04962    0.48343    0.61566   1.00
H2       0.15273    0.58126    0.57195   1.00
H2       0.21522    0.57519    0.58633   1.00
H2       0.18249    0.52710    0.56383   1.00
C4       0.18852    0.82903    0.66552   1.00
C4       0.16143    0.85546    0.65079   1.00
C3       0.14844    0.78141    0.68075   1.00
C3       0.09300    0.84177    0.65095   1.00
C3       0.25981    0.85191    0.66534   1.00
C3       0.20460    0.89789    0.63489   1.00
C2       0.24773    0.78059    0.69538   1.00
C2       0.11093    0.91211    0.62072   1.00
C3       0.17724    0.75813    0.69534   1.00
C3       0.06823    0.86877    0.63623   1.00
C3       0.28766    0.82684    0.67997   1.00
C3       0.17945    0.92694    0.62072   1.00
H1       0.09711    0.76207    0.68164   1.00
H1       0.05926    0.81213    0.66185   1.00
C5       0.30275    0.89947    0.65051   1.00
C5       0.27274    0.91164    0.63331   1.00
H1       0.14581    0.72408    0.70608   1.00
H1       0.01813    0.85666    0.63701   1.00
H1       0.33854    0.84226    0.67931   1.00
H1       0.21217    0.96067    0.61022   1.00
O3       0.37253    0.92991    0.65242   1.00
O3       0.31087    0.94086    0.61602   1.00
Si1      0.41517    1.00357    0.66380   1.00
Si1      0.30357    0.89171    0.59695   1.00
C6       0.49472    1.00690    0.66441   1.00
C6       0.41714    1.06584    0.64732   1.00
C6       0.38529    1.00380    0.68852   1.00
C6       0.24475    0.80344    0.59903   1.00
C6       0.27936    0.92599    0.57686   1.00
C6       0.38568    0.90526    0.59165   1.00
C6       0.49344    0.94057    0.67192   1.00
H2       0.50797    1.01120    0.64834   1.00
C6       0.55805    1.06732    0.67512   1.00
H2       0.41074    1.04172    0.63253   1.00
C6       0.35875    1.08349    0.64894   1.00
C6       0.48448    1.13632    0.64573   1.00
H2       0.38089    0.95737    0.69503   1.00
C6       0.43393    1.06341    0.70296   1.00
C6       0.31392    0.99858    0.69142   1.00
C6       0.25299    0.76371    0.61718   1.00
C6       0.16651    0.77713    0.59711   1.00
H2       0.25606    0.78307    0.58550   1.00
H2       0.22734    0.91292    0.58069   1.00
C6       0.31998    1.00554    0.57481   1.00
C6       0.27622    0.89666    0.55517   1.00
H2       0.40949    0.95205    0.58268   1.00
C6       0.43387    0.92056    0.61021   1.00
C6       0.39158    0.85054    0.57865   1.00
H2       0.45794    0.89609    0.66305   1.00
H2       0.47831    0.93022    0.68785   1.00
H2       0.54356    0.94498    0.67037   1.00
H2       0.60486    1.07840    0.66716   1.00
H2       0.55573    1.11410    0.67545   1.00
H2       0.56401    1.05520    0.69075   1.00
H2       0.35757    1.11096    0.63544   1.00
H2       0.30868    1.03799    0.65001   1.00
H2       0.36608    1.11589    0.66205   1.00
H2       0.52774    1.13014    0.64160   1.00
H2       0.48074    1.16823    0.63392   1.00
H2       0.49573    1.16440    0.66001   1.00
H2       0.45056    1.11298    0.69595   1.00
H2       0.40942    1.06205    0.71740   1.00
H2       0.47852    1.05980    0.70701   1.00
H2       0.31757    1.04848    0.69099   1.00
H2       0.27668    0.96722    0.68011   1.00
H2       0.29250    0.97599    0.70619   1.00
H2       0.22922    0.76871    0.63094   1.00
H2       0.22845    0.70926    0.61373   1.00
H2       0.30625    0.78085    0.62050   1.00
H2       0.13781    0.72151    0.59583   1.00
H2       0.14646    0.79044    0.61023   1.00
H2       0.15442    0.79671    0.58357   1.00
H2       0.29407    1.02251    0.56430   1.00
H2       0.32349    1.03033    0.58934   1.00
H2       0.37160    1.02423    0.56915   1.00
H2       0.24688    0.84105    0.55502   1.00
H2       0.25122    0.91447    0.54459   1.00
H2       0.32719    0.91305    0.54927   1.00
H2       0.41415    0.87808    0.62087   1.00
H2       0.48487    0.93227    0.60552   1.00
H2       0.43959    0.96487    0.61830   1.00
H2       0.44428    0.86956    0.57383   1.00
H2       0.37542    0.80364    0.58725   1.00
H2       0.36089    0.83770    0.56490   1.00
