data_IRMOF10_SG202_interpen_Ligand3cp_label_q.

_audit_creation_method             'generated by an auxiliary program of Tobunporous'

_symmetry_space_group_name_H-M     'P 1'
_symmetry_Int_Tables_number        1
_symmetry_cell_setting             triclinic

_cell_length_a                    34.2800
_cell_length_b                    34.2800
_cell_length_c                    34.2800
_cell_angle_alpha                 90.0000
_cell_angle_beta                  90.0000
_cell_angle_gamma                 90.0000

loop_
_atom_site_label
_atom_site_fract_x
_atom_site_fract_y
_atom_site_fract_z
_atom_site_occupancy
O1       0.75000    0.75000    0.75000   1.00
Zn1      0.71720    0.78280    0.78280   1.00
Zn1      0.78280    0.71720    0.78280   1.00
Zn1      0.78280    0.78280    0.71720   1.00
Zn1      0.71720    0.71720    0.71720   1.00
O2       0.72650    0.77350    0.83820   1.00
O2       0.72650    0.83820    0.77350   1.00
O2       0.66180    0.77350    0.77350   1.00
O2       0.77350    0.72650    0.83820   1.00
O2       0.83820    0.72650    0.77350   1.00
O2       0.77350    0.66180    0.77350   1.00
O2       0.77350    0.83820    0.72650   1.00
O2       0.83820    0.77350    0.72650   1.00
O2       0.77350    0.77350    0.66180   1.00
O2       0.66180    0.72650    0.72650   1.00
O2       0.72650    0.66180    0.72650   1.00
O2       0.72650    0.72650    0.66180   1.00
C1       0.75000    0.75000    0.85520   1.00
C1       0.75000    0.85520    0.75000   1.00
C1       0.64480    0.75000    0.75000   1.00
C1       0.85520    0.75000    0.75000   1.00
C1       0.75000    0.64480    0.75000   1.00
C1       0.75000    0.75000    0.64480   1.00
O1       0.25000    0.25000    0.75000   1.00
Zn1      0.21720    0.28280    0.78280   1.00
Zn1      0.28280    0.21720    0.78280   1.00
Zn1      0.28280    0.28280    0.71720   1.00
Zn1      0.21720    0.21720    0.71720   1.00
O2       0.22650    0.27350    0.83820   1.00
O2       0.22650    0.33820    0.77350   1.00
O2       0.16180    0.27350    0.77350   1.00
O2       0.27350    0.22650    0.83820   1.00
O2       0.33820    0.22650    0.77350   1.00
O2       0.27350    0.16180    0.77350   1.00
O2       0.27350    0.33820    0.72650   1.00
O2       0.33820    0.27350    0.72650   1.00
O2       0.27350    0.27350    0.66180   1.00
O2       0.16180    0.22650    0.72650   1.00
O2       0.22650    0.16180    0.72650   1.00
O2       0.22650    0.22650    0.66180   1.00
C1       0.25000    0.25000    0.85520   1.00
C1       0.25000    0.35520    0.75000   1.00
C1       0.14480    0.25000    0.75000   1.00
C1       0.35520    0.25000    0.75000   1.00
C1       0.25000    0.14480    0.75000   1.00
C1       0.25000    0.25000    0.64480   1.00
O1       0.25000    0.75000    0.25000   1.00
Zn1      0.21720    0.78280    0.28280   1.00
Zn1      0.28280    0.71720    0.28280   1.00
Zn1      0.28280    0.78280    0.21720   1.00
Zn1      0.21720    0.71720    0.21720   1.00
O2       0.22650    0.77350    0.33820   1.00
O2       0.22650    0.83820    0.27350   1.00
O2       0.16180    0.77350    0.27350   1.00
O2       0.27350    0.72650    0.33820   1.00
O2       0.33820    0.72650    0.27350   1.00
O2       0.27350    0.66180    0.27350   1.00
O2       0.27350    0.83820    0.22650   1.00
O2       0.33820    0.77350    0.22650   1.00
O2       0.27350    0.77350    0.16180   1.00
O2       0.16180    0.72650    0.22650   1.00
O2       0.22650    0.66180    0.22650   1.00
O2       0.22650    0.72650    0.16180   1.00
C1       0.25000    0.75000    0.35520   1.00
C1       0.25000    0.85520    0.25000   1.00
C1       0.14480    0.75000    0.25000   1.00
C1       0.35520    0.75000    0.25000   1.00
C1       0.25000    0.64480    0.25000   1.00
C1       0.25000    0.75000    0.14480   1.00
O1       0.75000    0.25000    0.25000   1.00
Zn1      0.71720    0.28280    0.28280   1.00
Zn1      0.78280    0.21720    0.28280   1.00
Zn1      0.78280    0.28280    0.21720   1.00
Zn1      0.71720    0.21720    0.21720   1.00
O2       0.72650    0.27350    0.33820   1.00
O2       0.72650    0.33820    0.27350   1.00
O2       0.66180    0.27350    0.27350   1.00
O2       0.77350    0.22650    0.33820   1.00
O2       0.83820    0.22650    0.27350   1.00
O2       0.77350    0.16180    0.27350   1.00
O2       0.77350    0.33820    0.22650   1.00
O2       0.83820    0.27350    0.22650   1.00
O2       0.77350    0.27350    0.16180   1.00
O2       0.66180    0.22650    0.22650   1.00
O2       0.72650    0.16180    0.22650   1.00
O2       0.72650    0.22650    0.16180   1.00
C1       0.75000    0.25000    0.35520   1.00
C1       0.75000    0.35520    0.25000   1.00
C1       0.64480    0.25000    0.25000   1.00
C1       0.85520    0.25000    0.25000   1.00
C1       0.75000    0.14480    0.25000   1.00
C1       0.75000    0.25000    0.14480   1.00
O1       0.25000    0.25000    0.25000   1.00
Zn1      0.28280    0.21720    0.21720   1.00
Zn1      0.21720    0.28280    0.21720   1.00
Zn1      0.21720    0.21720    0.28280   1.00
Zn1      0.28280    0.28280    0.28280   1.00
O2       0.27350    0.22650    0.16180   1.00
O2       0.27350    0.16180    0.22650   1.00
O2       0.33820    0.22650    0.22650   1.00
O2       0.22650    0.27350    0.16180   1.00
O2       0.16180    0.27350    0.22650   1.00
O2       0.22650    0.33820    0.22650   1.00
O2       0.22650    0.16180    0.27350   1.00
O2       0.16180    0.22650    0.27350   1.00
O2       0.22650    0.22650    0.33820   1.00
O2       0.33820    0.27350    0.27350   1.00
O2       0.27350    0.33820    0.27350   1.00
O2       0.27350    0.27350    0.33820   1.00
C1       0.25000    0.25000    0.14480   1.00
C1       0.25000    0.14480    0.25000   1.00
C1       0.35520    0.25000    0.25000   1.00
C1       0.14480    0.25000    0.25000   1.00
C1       0.25000    0.35520    0.25000   1.00
C1       0.25000    0.25000    0.35520   1.00
O1       0.75000    0.75000    0.25000   1.00
Zn1      0.78280    0.71720    0.21720   1.00
Zn1      0.71720    0.78280    0.21720   1.00
Zn1      0.71720    0.71720    0.28280   1.00
Zn1      0.78280    0.78280    0.28280   1.00
O2       0.77350    0.72650    0.16180   1.00
O2       0.77350    0.66180    0.22650   1.00
O2       0.83820    0.72650    0.22650   1.00
O2       0.72650    0.77350    0.16180   1.00
O2       0.66180    0.77350    0.22650   1.00
O2       0.72650    0.83820    0.22650   1.00
O2       0.72650    0.66180    0.27350   1.00
O2       0.66180    0.72650    0.27350   1.00
O2       0.72650    0.72650    0.33820   1.00
O2       0.83820    0.77350    0.27350   1.00
O2       0.77350    0.83820    0.27350   1.00
O2       0.77350    0.77350    0.33820   1.00
C1       0.75000    0.75000    0.14480   1.00
C1       0.75000    0.64480    0.25000   1.00
C1       0.85520    0.75000    0.25000   1.00
C1       0.64480    0.75000    0.25000   1.00
C1       0.75000    0.85520    0.25000   1.00
C1       0.75000    0.75000    0.35520   1.00
O1       0.75000    0.25000    0.75000   1.00
Zn1      0.78280    0.21720    0.71720   1.00
Zn1      0.71720    0.28280    0.71720   1.00
Zn1      0.71720    0.21720    0.78280   1.00
Zn1      0.78280    0.28280    0.78280   1.00
O2       0.77350    0.22650    0.66180   1.00
O2       0.77350    0.16180    0.72650   1.00
O2       0.83820    0.22650    0.72650   1.00
O2       0.72650    0.27350    0.66180   1.00
O2       0.66180    0.27350    0.72650   1.00
O2       0.72650    0.33820    0.72650   1.00
O2       0.72650    0.16180    0.77350   1.00
O2       0.66180    0.22650    0.77350   1.00
O2       0.72650    0.22650    0.83820   1.00
O2       0.83820    0.27350    0.77350   1.00
O2       0.77350    0.33820    0.77350   1.00
O2       0.77350    0.27350    0.83820   1.00
C1       0.75000    0.25000    0.64480   1.00
C1       0.75000    0.14480    0.75000   1.00
C1       0.85520    0.25000    0.75000   1.00
C1       0.64480    0.25000    0.75000   1.00
C1       0.75000    0.35520    0.75000   1.00
C1       0.75000    0.25000    0.85520   1.00
O1       0.25000    0.75000    0.75000   1.00
Zn1      0.28280    0.71720    0.71720   1.00
Zn1      0.21720    0.78280    0.71720   1.00
Zn1      0.21720    0.71720    0.78280   1.00
Zn1      0.28280    0.78280    0.78280   1.00
O2       0.27350    0.72650    0.66180   1.00
O2       0.27350    0.66180    0.72650   1.00
O2       0.33820    0.72650    0.72650   1.00
O2       0.22650    0.77350    0.66180   1.00
O2       0.16180    0.77350    0.72650   1.00
O2       0.22650    0.83820    0.72650   1.00
O2       0.22650    0.66180    0.77350   1.00
O2       0.16180    0.72650    0.77350   1.00
O2       0.22650    0.72650    0.83820   1.00
O2       0.33820    0.77350    0.77350   1.00
O2       0.27350    0.83820    0.77350   1.00
O2       0.27350    0.77350    0.83820   1.00
C1       0.25000    0.75000    0.64480   1.00
C1       0.25000    0.64480    0.75000   1.00
C1       0.35520    0.75000    0.75000   1.00
C1       0.14480    0.75000    0.75000   1.00
C1       0.25000    0.85520    0.75000   1.00
C1       0.25000    0.75000    0.85520   1.00
O1       0.91500    0.91500    0.91500   1.00
Zn1      0.88220    0.94780    0.94780   1.00
Zn1      0.94780    0.88220    0.94780   1.00
Zn1      0.94780    0.94780    0.88220   1.00
Zn1      0.88220    0.88220    0.88220   1.00
O2       0.89150    0.93850    1.00320   1.00
O2       0.89150    1.00320    0.93850   1.00
O2       0.82680    0.93850    0.93850   1.00
O2       0.93850    0.89150    1.00320   1.00
O2       1.00320    0.89150    0.93850   1.00
O2       0.93850    0.82680    0.93850   1.00
O2       0.93850    1.00320    0.89150   1.00
O2       1.00320    0.93850    0.89150   1.00
O2       0.93850    0.93850    0.82680   1.00
O2       0.82680    0.89150    0.89150   1.00
O2       0.89150    0.82680    0.89150   1.00
O2       0.89150    0.89150    0.82680   1.00
C1       0.91500    0.91500    1.02020   1.00
C1       0.91500    1.02020    0.91500   1.00
C1       0.80980    0.91500    0.91500   1.00
C1       1.02020    0.91500    0.91500   1.00
C1       0.91500    0.80980    0.91500   1.00
C1       0.91500    0.91500    0.80980   1.00
O1       0.41500    0.41500    0.91500   1.00
Zn1      0.38220    0.44780    0.94780   1.00
Zn1      0.44780    0.38220    0.94780   1.00
Zn1      0.44780    0.44780    0.88220   1.00
Zn1      0.38220    0.38220    0.88220   1.00
O2       0.39150    0.43850    1.00320   1.00
O2       0.39150    0.50320    0.93850   1.00
O2       0.32680    0.43850    0.93850   1.00
O2       0.43850    0.39150    1.00320   1.00
O2       0.50320    0.39150    0.93850   1.00
O2       0.43850    0.32680    0.93850   1.00
O2       0.43850    0.50320    0.89150   1.00
O2       0.50320    0.43850    0.89150   1.00
O2       0.43850    0.43850    0.82680   1.00
O2       0.32680    0.39150    0.89150   1.00
O2       0.39150    0.32680    0.89150   1.00
O2       0.39150    0.39150    0.82680   1.00
C1       0.41500    0.41500    1.02020   1.00
C1       0.41500    0.52020    0.91500   1.00
C1       0.30980    0.41500    0.91500   1.00
C1       0.52020    0.41500    0.91500   1.00
C1       0.41500    0.30980    0.91500   1.00
C1       0.41500    0.41500    0.80980   1.00
O1       0.41500    0.91500    0.41500   1.00
Zn1      0.38220    0.94780    0.44780   1.00
Zn1      0.44780    0.88220    0.44780   1.00
Zn1      0.44780    0.94780    0.38220   1.00
Zn1      0.38220    0.88220    0.38220   1.00
O2       0.39150    0.93850    0.50320   1.00
O2       0.39150    1.00320    0.43850   1.00
O2       0.32680    0.93850    0.43850   1.00
O2       0.43850    0.89150    0.50320   1.00
O2       0.50320    0.89150    0.43850   1.00
O2       0.43850    0.82680    0.43850   1.00
O2       0.43850    1.00320    0.39150   1.00
O2       0.50320    0.93850    0.39150   1.00
O2       0.43850    0.93850    0.32680   1.00
O2       0.32680    0.89150    0.39150   1.00
O2       0.39150    0.82680    0.39150   1.00
O2       0.39150    0.89150    0.32680   1.00
C1       0.41500    0.91500    0.52020   1.00
C1       0.41500    1.02020    0.41500   1.00
C1       0.30980    0.91500    0.41500   1.00
C1       0.52020    0.91500    0.41500   1.00
C1       0.41500    0.80980    0.41500   1.00
C1       0.41500    0.91500    0.30980   1.00
O1       0.91500    0.41500    0.41500   1.00
Zn1      0.88220    0.44780    0.44780   1.00
Zn1      0.94780    0.38220    0.44780   1.00
Zn1      0.94780    0.44780    0.38220   1.00
Zn1      0.88220    0.38220    0.38220   1.00
O2       0.89150    0.43850    0.50320   1.00
O2       0.89150    0.50320    0.43850   1.00
O2       0.82680    0.43850    0.43850   1.00
O2       0.93850    0.39150    0.50320   1.00
O2       1.00320    0.39150    0.43850   1.00
O2       0.93850    0.32680    0.43850   1.00
O2       0.93850    0.50320    0.39150   1.00
O2       1.00320    0.43850    0.39150   1.00
O2       0.93850    0.43850    0.32680   1.00
O2       0.82680    0.39150    0.39150   1.00
O2       0.89150    0.32680    0.39150   1.00
O2       0.89150    0.39150    0.32680   1.00
C1       0.91500    0.41500    0.52020   1.00
C1       0.91500    0.52020    0.41500   1.00
C1       0.80980    0.41500    0.41500   1.00
C1       1.02020    0.41500    0.41500   1.00
C1       0.91500    0.30980    0.41500   1.00
C1       0.91500    0.41500    0.30980   1.00
O1       0.41500    0.41500    0.41500   1.00
Zn1      0.44780    0.38220    0.38220   1.00
Zn1      0.38220    0.44780    0.38220   1.00
Zn1      0.38220    0.38220    0.44780   1.00
Zn1      0.44780    0.44780    0.44780   1.00
O2       0.43850    0.39150    0.32680   1.00
O2       0.43850    0.32680    0.39150   1.00
O2       0.50320    0.39150    0.39150   1.00
O2       0.39150    0.43850    0.32680   1.00
O2       0.32680    0.43850    0.39150   1.00
O2       0.39150    0.50320    0.39150   1.00
O2       0.39150    0.32680    0.43850   1.00
O2       0.32680    0.39150    0.43850   1.00
O2       0.39150    0.39150    0.50320   1.00
O2       0.50320    0.43850    0.43850   1.00
O2       0.43850    0.50320    0.43850   1.00
O2       0.43850    0.43850    0.50320   1.00
C1       0.41500    0.41500    0.30980   1.00
C1       0.41500    0.30980    0.41500   1.00
C1       0.52020    0.41500    0.41500   1.00
C1       0.30980    0.41500    0.41500   1.00
C1       0.41500    0.52020    0.41500   1.00
C1       0.41500    0.41500    0.52020   1.00
O1       0.91500    0.91500    0.41500   1.00
Zn1      0.94780    0.88220    0.38220   1.00
Zn1      0.88220    0.94780    0.38220   1.00
Zn1      0.88220    0.88220    0.44780   1.00
Zn1      0.94780    0.94780    0.44780   1.00
O2       0.93850    0.89150    0.32680   1.00
O2       0.93850    0.82680    0.39150   1.00
O2       1.00320    0.89150    0.39150   1.00
O2       0.89150    0.93850    0.32680   1.00
O2       0.82680    0.93850    0.39150   1.00
O2       0.89150    1.00320    0.39150   1.00
O2       0.89150    0.82680    0.43850   1.00
O2       0.82680    0.89150    0.43850   1.00
O2       0.89150    0.89150    0.50320   1.00
O2       1.00320    0.93850    0.43850   1.00
O2       0.93850    1.00320    0.43850   1.00
O2       0.93850    0.93850    0.50320   1.00
C1       0.91500    0.91500    0.30980   1.00
C1       0.91500    0.80980    0.41500   1.00
C1       1.02020    0.91500    0.41500   1.00
C1       0.80980    0.91500    0.41500   1.00
C1       0.91500    1.02020    0.41500   1.00
C1       0.91500    0.91500    0.52020   1.00
O1       0.91500    0.41500    0.91500   1.00
Zn1      0.94780    0.38220    0.88220   1.00
Zn1      0.88220    0.44780    0.88220   1.00
Zn1      0.88220    0.38220    0.94780   1.00
Zn1      0.94780    0.44780    0.94780   1.00
O2       0.93850    0.39150    0.82680   1.00
O2       0.93850    0.32680    0.89150   1.00
O2       1.00320    0.39150    0.89150   1.00
O2       0.89150    0.43850    0.82680   1.00
O2       0.82680    0.43850    0.89150   1.00
O2       0.89150    0.50320    0.89150   1.00
O2       0.89150    0.32680    0.93850   1.00
O2       0.82680    0.39150    0.93850   1.00
O2       0.89150    0.39150    1.00320   1.00
O2       1.00320    0.43850    0.93850   1.00
O2       0.93850    0.50320    0.93850   1.00
O2       0.93850    0.43850    1.00320   1.00
C1       0.91500    0.41500    0.80980   1.00
C1       0.91500    0.30980    0.91500   1.00
C1       1.02020    0.41500    0.91500   1.00
C1       0.80980    0.41500    0.91500   1.00
C1       0.91500    0.52020    0.91500   1.00
C1       0.91500    0.41500    1.02020   1.00
O1       0.41500    0.91500    0.91500   1.00
Zn1      0.44780    0.88220    0.88220   1.00
Zn1      0.38220    0.94780    0.88220   1.00
Zn1      0.38220    0.88220    0.94780   1.00
Zn1      0.44780    0.94780    0.94780   1.00
O2       0.43850    0.89150    0.82680   1.00
O2       0.43850    0.82680    0.89150   1.00
O2       0.50320    0.89150    0.89150   1.00
O2       0.39150    0.93850    0.82680   1.00
O2       0.32680    0.93850    0.89150   1.00
O2       0.39150    1.00320    0.89150   1.00
O2       0.39150    0.82680    0.93850   1.00
O2       0.32680    0.89150    0.93850   1.00
O2       0.39150    0.89150    1.00320   1.00
O2       0.50320    0.93850    0.93850   1.00
O2       0.43850    1.00320    0.93850   1.00
O2       0.43850    0.93850    1.00320   1.00
C1       0.41500    0.91500    0.80980   1.00
C1       0.41500    0.80980    0.91500   1.00
C1       0.52020    0.91500    0.91500   1.00
C1       0.30980    0.91500    0.91500   1.00
C1       0.41500    1.02020    0.91500   1.00
C1       0.41500    0.91500    1.02020   1.00
C4       0.74759    0.74814    1.02084   1.00
C4       0.74767    0.74887    0.97912   1.00
C3       0.71314    0.74501    1.04364   1.00
C3       0.71319    0.75011    0.95616   1.00
C3       0.78377    0.75131    1.04123   1.00
C3       0.78406    0.74822    0.95886   1.00
C2       0.74972    0.74884    1.10512   1.00
C2       0.75028    0.75116    0.89488   1.00
C3       0.71412    0.74556    1.08462   1.00
C3       0.71443    0.75086    0.91519   1.00
C3       0.78421    0.75108    1.08258   1.00
C3       0.78470    0.75068    0.91762   1.00
H1       0.68633    0.74209    1.03115   1.00
H1       0.68617    0.75076    0.96852   1.00
C5       0.81930    0.75452    1.02020   1.00
C5       0.81962    0.74548    0.97980   1.00
H1       0.68824    0.74348    1.09955   1.00
H1       0.68855    0.75141    0.90010   1.00
H1       0.81047    0.75228    1.09680   1.00
H1       0.81100    0.75270    0.90368   1.00
O3       0.85319    0.76406    1.03961   1.00
O3       0.85429    0.73706    0.96099   1.00
Si1      0.86685    0.80963    1.04247   1.00
Si1      0.86553    0.69152    0.95279   1.00
C6       0.90584    0.80255    1.07538   1.00
C6       0.88395    0.82352    0.99598   1.00
C6       0.83078    0.84048    1.06253   1.00
C6       0.83183    0.65511    0.96693   1.00
C6       0.87189    0.69008    0.90198   1.00
C6       0.91120    0.68293    0.97477   1.00
C6       0.89666    0.77661    1.11194   1.00
H2       0.92636    0.78553    1.05791   1.00
C6       0.92991    0.83806    1.09147   1.00
H2       0.89275    0.79554    0.98358   1.00
C6       0.85418    0.84140    0.96634   1.00
C6       0.92090    0.85024    0.99336   1.00
H2       0.82155    0.82412    1.08831   1.00
C6       0.84434    0.88142    1.07772   1.00
C6       0.79277    0.84947    1.03849   1.00
C6       0.81905    0.65352    1.01071   1.00
C6       0.79389    0.64870    0.94225   1.00
H2       0.84842    0.62835    0.96212   1.00
H2       0.84241    0.69372    0.89051   1.00
C6       0.89628    0.72418    0.88378   1.00
C6       0.88807    0.65142    0.88393   1.00
H2       0.93218    0.69447    0.95375   1.00
C6       0.91959    0.70552    1.01336   1.00
C6       0.92358    0.63961    0.98244   1.00
H2       0.88530    0.74806    1.10346   1.00
H2       0.87514    0.79056    1.13090   1.00
H2       0.92296    0.77123    1.12917   1.00
H2       0.96029    0.82947    1.09608   1.00
H2       0.92994    0.86292    1.07178   1.00
H2       0.91903    0.84826    1.11964   1.00
H2       0.86607    0.84092    0.93672   1.00
H2       0.82702    0.82498    0.96532   1.00
H2       0.84755    0.87171    0.97352   1.00
H2       0.94569    0.83735    1.00862   1.00
H2       0.93021    0.85422    0.96308   1.00
H2       0.91507    0.87914    1.00550   1.00
H2       0.86016    0.89740    1.05514   1.00
H2       0.81973    0.89951    1.08708   1.00
H2       0.86283    0.87870    1.10332   1.00
H2       0.79651    0.87440    1.01902   1.00
H2       0.78306    0.82523    1.02068   1.00
H2       0.76874    0.85656    1.05828   1.00
H2       0.79559    0.67406    1.01688   1.00
H2       0.80815    0.62445    1.01809   1.00
H2       0.84312    0.65969    1.03048   1.00
H2       0.77902    0.62192    0.95125   1.00
H2       0.77308    0.67241    0.94574   1.00
H2       0.80015    0.64540    0.91122   1.00
H2       0.89302    0.72449    0.85202   1.00
H2       0.88630    0.75256    0.89435   1.00
H2       0.92731    0.72148    0.89035   1.00
H2       0.87192    0.62596    0.89416   1.00
H2       0.88534    0.65199    0.85212   1.00
H2       0.91891    0.64735    0.89085   1.00
H2       0.89932    0.69758    1.03656   1.00
H2       0.94926    0.70035    1.02381   1.00
H2       0.91686    0.73667    1.00834   1.00
H2       0.95443    0.63789    0.99044   1.00
H2       0.90671    0.62670    1.00622   1.00
H2       0.91980    0.62150    0.95657   1.00
C4       0.74814    1.02084    0.74759   1.00
C4       0.74887    0.97912    0.74767   1.00
C3       0.74501    1.04364    0.71314   1.00
C3       0.75011    0.95616    0.71319   1.00
C3       0.75131    1.04123    0.78377   1.00
C3       0.74822    0.95886    0.78406   1.00
C2       0.74884    1.10512    0.74972   1.00
C2       0.75116    0.89488    0.75028   1.00
C3       0.74556    1.08462    0.71412   1.00
C3       0.75086    0.91519    0.71443   1.00
C3       0.75108    1.08258    0.78421   1.00
C3       0.75068    0.91762    0.78470   1.00
H1       0.74209    1.03115    0.68633   1.00
H1       0.75076    0.96852    0.68617   1.00
C5       0.75452    1.02020    0.81930   1.00
C5       0.74548    0.97980    0.81962   1.00
H1       0.74348    1.09955    0.68824   1.00
H1       0.75141    0.90010    0.68855   1.00
H1       0.75228    1.09680    0.81047   1.00
H1       0.75270    0.90368    0.81100   1.00
O3       0.76406    1.03961    0.85319   1.00
O3       0.73706    0.96099    0.85429   1.00
Si1      0.80963    1.04247    0.86685   1.00
Si1      0.69152    0.95279    0.86553   1.00
C6       0.80255    1.07538    0.90584   1.00
C6       0.82352    0.99598    0.88395   1.00
C6       0.84048    1.06253    0.83078   1.00
C6       0.65511    0.96693    0.83183   1.00
C6       0.69008    0.90198    0.87189   1.00
C6       0.68293    0.97477    0.91120   1.00
C6       0.77661    1.11194    0.89666   1.00
H2       0.78553    1.05791    0.92636   1.00
C6       0.83806    1.09147    0.92991   1.00
H2       0.79554    0.98358    0.89275   1.00
C6       0.84140    0.96634    0.85418   1.00
C6       0.85024    0.99336    0.92090   1.00
H2       0.82412    1.08831    0.82155   1.00
C6       0.88142    1.07772    0.84434   1.00
C6       0.84947    1.03849    0.79277   1.00
C6       0.65352    1.01071    0.81905   1.00
C6       0.64870    0.94225    0.79389   1.00
H2       0.62835    0.96212    0.84842   1.00
H2       0.69372    0.89051    0.84241   1.00
C6       0.72418    0.88378    0.89628   1.00
C6       0.65142    0.88393    0.88807   1.00
H2       0.69447    0.95375    0.93218   1.00
C6       0.70552    1.01336    0.91959   1.00
C6       0.63961    0.98244    0.92358   1.00
H2       0.74806    1.10346    0.88530   1.00
H2       0.79056    1.13090    0.87514   1.00
H2       0.77123    1.12917    0.92296   1.00
H2       0.82947    1.09608    0.96029   1.00
H2       0.86292    1.07178    0.92994   1.00
H2       0.84826    1.11964    0.91903   1.00
H2       0.84092    0.93672    0.86607   1.00
H2       0.82498    0.96532    0.82702   1.00
H2       0.87171    0.97352    0.84755   1.00
H2       0.83735    1.00862    0.94569   1.00
H2       0.85422    0.96308    0.93021   1.00
H2       0.87914    1.00550    0.91507   1.00
H2       0.89740    1.05514    0.86016   1.00
H2       0.89951    1.08708    0.81973   1.00
H2       0.87870    1.10332    0.86283   1.00
H2       0.87440    1.01902    0.79651   1.00
H2       0.82523    1.02068    0.78306   1.00
H2       0.85656    1.05828    0.76874   1.00
H2       0.67406    1.01688    0.79559   1.00
H2       0.62445    1.01809    0.80815   1.00
H2       0.65969    1.03048    0.84312   1.00
H2       0.62192    0.95125    0.77902   1.00
H2       0.67241    0.94574    0.77308   1.00
H2       0.64540    0.91122    0.80015   1.00
H2       0.72449    0.85202    0.89302   1.00
H2       0.75256    0.89435    0.88630   1.00
H2       0.72148    0.89035    0.92731   1.00
H2       0.62596    0.89416    0.87192   1.00
H2       0.65199    0.85212    0.88534   1.00
H2       0.64735    0.89085    0.91891   1.00
H2       0.69758    1.03656    0.89932   1.00
H2       0.70035    1.02381    0.94926   1.00
H2       0.73667    1.00834    0.91686   1.00
H2       0.63789    0.99044    0.95443   1.00
H2       0.62670    1.00622    0.90671   1.00
H2       0.62150    0.95657    0.91980   1.00
C4       0.47916    0.74759    0.75186   1.00
C4       0.52088    0.74767    0.75113   1.00
C3       0.45636    0.71314    0.75499   1.00
C3       0.54384    0.71319    0.74989   1.00
C3       0.45877    0.78377    0.74869   1.00
C3       0.54114    0.78406    0.75178   1.00
C2       0.39488    0.74972    0.75116   1.00
C2       0.60512    0.75028    0.74884   1.00
C3       0.41538    0.71412    0.75444   1.00
C3       0.58481    0.71443    0.74914   1.00
C3       0.41742    0.78421    0.74892   1.00
C3       0.58238    0.78470    0.74932   1.00
H1       0.46885    0.68633    0.75791   1.00
H1       0.53148    0.68617    0.74924   1.00
C5       0.47980    0.81930    0.74548   1.00
C5       0.52020    0.81962    0.75452   1.00
H1       0.40045    0.68824    0.75652   1.00
H1       0.59990    0.68855    0.74859   1.00
H1       0.40320    0.81047    0.74772   1.00
H1       0.59632    0.81100    0.74730   1.00
O3       0.46039    0.85319    0.73594   1.00
O3       0.53901    0.85429    0.76294   1.00
Si1      0.45753    0.86685    0.69037   1.00
Si1      0.54721    0.86553    0.80848   1.00
C6       0.42462    0.90584    0.69745   1.00
C6       0.50402    0.88395    0.67648   1.00
C6       0.43747    0.83078    0.65952   1.00
C6       0.53307    0.83183    0.84489   1.00
C6       0.59802    0.87189    0.80992   1.00
C6       0.52523    0.91120    0.81707   1.00
C6       0.38806    0.89666    0.72339   1.00
H2       0.44209    0.92636    0.71447   1.00
C6       0.40853    0.92991    0.66194   1.00
H2       0.51642    0.89275    0.70446   1.00
C6       0.53366    0.85418    0.65860   1.00
C6       0.50664    0.92090    0.64976   1.00
H2       0.41169    0.82155    0.67588   1.00
C6       0.42228    0.84434    0.61858   1.00
C6       0.46151    0.79277    0.65053   1.00
C6       0.48929    0.81905    0.84648   1.00
C6       0.55775    0.79389    0.85130   1.00
H2       0.53788    0.84842    0.87165   1.00
H2       0.60949    0.84241    0.80628   1.00
C6       0.61622    0.89628    0.77582   1.00
C6       0.61607    0.88807    0.84858   1.00
H2       0.54625    0.93218    0.80553   1.00
C6       0.48664    0.91959    0.79448   1.00
C6       0.51756    0.92358    0.86039   1.00
H2       0.39654    0.88530    0.75194   1.00
H2       0.36910    0.87514    0.70944   1.00
H2       0.37083    0.92296    0.72877   1.00
H2       0.40392    0.96029    0.67053   1.00
H2       0.42822    0.92994    0.63708   1.00
H2       0.38036    0.91903    0.65174   1.00
H2       0.56328    0.86607    0.65908   1.00
H2       0.53468    0.82702    0.67502   1.00
H2       0.52648    0.84755    0.62829   1.00
H2       0.49138    0.94569    0.66265   1.00
H2       0.53692    0.93021    0.64578   1.00
H2       0.49450    0.91507    0.62086   1.00
H2       0.44486    0.86016    0.60260   1.00
H2       0.41292    0.81973    0.60049   1.00
H2       0.39668    0.86283    0.62130   1.00
H2       0.48098    0.79651    0.62560   1.00
H2       0.47932    0.78306    0.67477   1.00
H2       0.44172    0.76874    0.64344   1.00
H2       0.48312    0.79559    0.82594   1.00
H2       0.48191    0.80815    0.87555   1.00
H2       0.46952    0.84312    0.84031   1.00
H2       0.54875    0.77902    0.87808   1.00
H2       0.55426    0.77308    0.82759   1.00
H2       0.58878    0.80015    0.85460   1.00
H2       0.64798    0.89302    0.77551   1.00
H2       0.60565    0.88630    0.74744   1.00
H2       0.60965    0.92731    0.77852   1.00
H2       0.60584    0.87192    0.87404   1.00
H2       0.64788    0.88534    0.84801   1.00
H2       0.60915    0.91891    0.85265   1.00
H2       0.46344    0.89932    0.80242   1.00
H2       0.47619    0.94926    0.79965   1.00
H2       0.49166    0.91686    0.76333   1.00
H2       0.50956    0.95443    0.86211   1.00
H2       0.49378    0.90671    0.87330   1.00
H2       0.54343    0.91980    0.87850   1.00
C4       1.02084    0.74759    0.74814   1.00
C4       0.97912    0.74767    0.74887   1.00
C3       1.04364    0.71314    0.74501   1.00
C3       0.95616    0.71319    0.75011   1.00
C3       1.04123    0.78377    0.75131   1.00
C3       0.95886    0.78406    0.74822   1.00
C2       1.10512    0.74972    0.74884   1.00
C2       0.89488    0.75028    0.75116   1.00
C3       1.08462    0.71412    0.74556   1.00
C3       0.91519    0.71443    0.75086   1.00
C3       1.08258    0.78421    0.75108   1.00
C3       0.91762    0.78470    0.75068   1.00
H1       1.03115    0.68633    0.74209   1.00
H1       0.96852    0.68617    0.75076   1.00
C5       1.02020    0.81930    0.75452   1.00
C5       0.97980    0.81962    0.74548   1.00
H1       1.09955    0.68824    0.74348   1.00
H1       0.90010    0.68855    0.75141   1.00
H1       1.09680    0.81047    0.75228   1.00
H1       0.90368    0.81100    0.75270   1.00
O3       1.03961    0.85319    0.76406   1.00
O3       0.96099    0.85429    0.73706   1.00
Si1      1.04247    0.86685    0.80963   1.00
Si1      0.95279    0.86553    0.69152   1.00
C6       1.07538    0.90584    0.80255   1.00
C6       0.99598    0.88395    0.82352   1.00
C6       1.06253    0.83078    0.84048   1.00
C6       0.96693    0.83183    0.65511   1.00
C6       0.90198    0.87189    0.69008   1.00
C6       0.97477    0.91120    0.68293   1.00
C6       1.11194    0.89666    0.77661   1.00
H2       1.05791    0.92636    0.78553   1.00
C6       1.09147    0.92991    0.83806   1.00
H2       0.98358    0.89275    0.79554   1.00
C6       0.96634    0.85418    0.84140   1.00
C6       0.99336    0.92090    0.85024   1.00
H2       1.08831    0.82155    0.82412   1.00
C6       1.07772    0.84434    0.88142   1.00
C6       1.03849    0.79277    0.84947   1.00
C6       1.01071    0.81905    0.65352   1.00
C6       0.94225    0.79389    0.64870   1.00
H2       0.96212    0.84842    0.62835   1.00
H2       0.89051    0.84241    0.69372   1.00
C6       0.88378    0.89628    0.72418   1.00
C6       0.88393    0.88807    0.65142   1.00
H2       0.95375    0.93218    0.69447   1.00
C6       1.01336    0.91959    0.70552   1.00
C6       0.98244    0.92358    0.63961   1.00
H2       1.10346    0.88530    0.74806   1.00
H2       1.13090    0.87514    0.79056   1.00
H2       1.12917    0.92296    0.77123   1.00
H2       1.09608    0.96029    0.82947   1.00
H2       1.07178    0.92994    0.86292   1.00
H2       1.11964    0.91903    0.84826   1.00
H2       0.93672    0.86607    0.84092   1.00
H2       0.96532    0.82702    0.82498   1.00
H2       0.97352    0.84755    0.87171   1.00
H2       1.00862    0.94569    0.83735   1.00
H2       0.96308    0.93021    0.85422   1.00
H2       1.00550    0.91507    0.87914   1.00
H2       1.05514    0.86016    0.89740   1.00
H2       1.08708    0.81973    0.89951   1.00
H2       1.10332    0.86283    0.87870   1.00
H2       1.01902    0.79651    0.87440   1.00
H2       1.02068    0.78306    0.82523   1.00
H2       1.05828    0.76874    0.85656   1.00
H2       1.01688    0.79559    0.67406   1.00
H2       1.01809    0.80815    0.62445   1.00
H2       1.03048    0.84312    0.65969   1.00
H2       0.95125    0.77902    0.62192   1.00
H2       0.94574    0.77308    0.67241   1.00
H2       0.91122    0.80015    0.64540   1.00
H2       0.85202    0.89302    0.72449   1.00
H2       0.89435    0.88630    0.75256   1.00
H2       0.89035    0.92731    0.72148   1.00
H2       0.89416    0.87192    0.62596   1.00
H2       0.85212    0.88534    0.65199   1.00
H2       0.89085    0.91891    0.64735   1.00
H2       1.03656    0.89932    0.69758   1.00
H2       1.02381    0.94926    0.70035   1.00
H2       1.00834    0.91686    0.73667   1.00
H2       0.99044    0.95443    0.63789   1.00
H2       1.00622    0.90671    0.62670   1.00
H2       0.95657    0.91980    0.62150   1.00
C4       0.75186    0.47916    0.74759   1.00
C4       0.75113    0.52088    0.74767   1.00
C3       0.75499    0.45636    0.71314   1.00
C3       0.74989    0.54384    0.71319   1.00
C3       0.74869    0.45877    0.78377   1.00
C3       0.75178    0.54114    0.78406   1.00
C2       0.75116    0.39488    0.74972   1.00
C2       0.74884    0.60512    0.75028   1.00
C3       0.75444    0.41538    0.71412   1.00
C3       0.74914    0.58481    0.71443   1.00
C3       0.74892    0.41742    0.78421   1.00
C3       0.74932    0.58238    0.78470   1.00
H1       0.75791    0.46885    0.68633   1.00
H1       0.74924    0.53148    0.68617   1.00
C5       0.74548    0.47980    0.81930   1.00
C5       0.75452    0.52020    0.81962   1.00
H1       0.75652    0.40045    0.68824   1.00
H1       0.74859    0.59990    0.68855   1.00
H1       0.74772    0.40320    0.81047   1.00
H1       0.74730    0.59632    0.81100   1.00
O3       0.73594    0.46039    0.85319   1.00
O3       0.76294    0.53901    0.85429   1.00
Si1      0.69037    0.45753    0.86685   1.00
Si1      0.80848    0.54721    0.86553   1.00
C6       0.69745    0.42462    0.90584   1.00
C6       0.67648    0.50402    0.88395   1.00
C6       0.65952    0.43747    0.83078   1.00
C6       0.84489    0.53307    0.83183   1.00
C6       0.80992    0.59802    0.87189   1.00
C6       0.81707    0.52523    0.91120   1.00
C6       0.72339    0.38806    0.89666   1.00
H2       0.71447    0.44209    0.92636   1.00
C6       0.66194    0.40853    0.92991   1.00
H2       0.70446    0.51642    0.89275   1.00
C6       0.65860    0.53366    0.85418   1.00
C6       0.64976    0.50664    0.92090   1.00
H2       0.67588    0.41169    0.82155   1.00
C6       0.61858    0.42228    0.84434   1.00
C6       0.65053    0.46151    0.79277   1.00
C6       0.84648    0.48929    0.81905   1.00
C6       0.85130    0.55775    0.79389   1.00
H2       0.87165    0.53788    0.84842   1.00
H2       0.80628    0.60949    0.84241   1.00
C6       0.77582    0.61622    0.89628   1.00
C6       0.84858    0.61607    0.88807   1.00
H2       0.80553    0.54625    0.93218   1.00
C6       0.79448    0.48664    0.91959   1.00
C6       0.86039    0.51756    0.92358   1.00
H2       0.75194    0.39654    0.88530   1.00
H2       0.70944    0.36910    0.87514   1.00
H2       0.72877    0.37083    0.92296   1.00
H2       0.67053    0.40392    0.96029   1.00
H2       0.63708    0.42822    0.92994   1.00
H2       0.65174    0.38036    0.91903   1.00
H2       0.65908    0.56328    0.86607   1.00
H2       0.67502    0.53468    0.82702   1.00
H2       0.62829    0.52648    0.84755   1.00
H2       0.66265    0.49138    0.94569   1.00
H2       0.64578    0.53692    0.93021   1.00
H2       0.62086    0.49450    0.91507   1.00
H2       0.60260    0.44486    0.86016   1.00
H2       0.60049    0.41292    0.81973   1.00
H2       0.62130    0.39668    0.86283   1.00
H2       0.62560    0.48098    0.79651   1.00
H2       0.67477    0.47932    0.78306   1.00
H2       0.64344    0.44172    0.76874   1.00
H2       0.82594    0.48312    0.79559   1.00
H2       0.87555    0.48191    0.80815   1.00
H2       0.84031    0.46952    0.84312   1.00
H2       0.87808    0.54875    0.77902   1.00
H2       0.82759    0.55426    0.77308   1.00
H2       0.85460    0.58878    0.80015   1.00
H2       0.77551    0.64798    0.89302   1.00
H2       0.74744    0.60565    0.88630   1.00
H2       0.77852    0.60965    0.92731   1.00
H2       0.87404    0.60584    0.87192   1.00
H2       0.84801    0.64788    0.88534   1.00
H2       0.85265    0.60915    0.91891   1.00
H2       0.80242    0.46344    0.89932   1.00
H2       0.79965    0.47619    0.94926   1.00
H2       0.76333    0.49166    0.91686   1.00
H2       0.86211    0.50956    0.95443   1.00
H2       0.87330    0.49378    0.90671   1.00
H2       0.87850    0.54343    0.91980   1.00
C4       0.74759    0.75186    0.47916   1.00
C4       0.74767    0.75113    0.52088   1.00
C3       0.71314    0.75499    0.45636   1.00
C3       0.71319    0.74989    0.54384   1.00
C3       0.78377    0.74869    0.45877   1.00
C3       0.78406    0.75178    0.54114   1.00
C2       0.74972    0.75116    0.39488   1.00
C2       0.75028    0.74884    0.60512   1.00
C3       0.71412    0.75444    0.41538   1.00
C3       0.71443    0.74914    0.58481   1.00
C3       0.78421    0.74892    0.41742   1.00
C3       0.78470    0.74932    0.58238   1.00
H1       0.68633    0.75791    0.46885   1.00
H1       0.68617    0.74924    0.53148   1.00
C5       0.81930    0.74548    0.47980   1.00
C5       0.81962    0.75452    0.52020   1.00
H1       0.68824    0.75652    0.40045   1.00
H1       0.68855    0.74859    0.59990   1.00
H1       0.81047    0.74772    0.40320   1.00
H1       0.81100    0.74730    0.59632   1.00
O3       0.85319    0.73594    0.46039   1.00
O3       0.85429    0.76294    0.53901   1.00
Si1      0.86685    0.69037    0.45753   1.00
Si1      0.86553    0.80848    0.54721   1.00
C6       0.90584    0.69745    0.42462   1.00
C6       0.88395    0.67648    0.50402   1.00
C6       0.83078    0.65952    0.43747   1.00
C6       0.83183    0.84489    0.53307   1.00
C6       0.87189    0.80992    0.59802   1.00
C6       0.91120    0.81707    0.52523   1.00
C6       0.89666    0.72339    0.38806   1.00
H2       0.92636    0.71447    0.44209   1.00
C6       0.92991    0.66194    0.40853   1.00
H2       0.89275    0.70446    0.51642   1.00
C6       0.85418    0.65860    0.53366   1.00
C6       0.92090    0.64976    0.50664   1.00
H2       0.82155    0.67588    0.41169   1.00
C6       0.84434    0.61858    0.42228   1.00
C6       0.79277    0.65053    0.46151   1.00
C6       0.81905    0.84648    0.48929   1.00
C6       0.79389    0.85130    0.55775   1.00
H2       0.84842    0.87165    0.53788   1.00
H2       0.84241    0.80628    0.60949   1.00
C6       0.89628    0.77582    0.61622   1.00
C6       0.88807    0.84858    0.61607   1.00
H2       0.93218    0.80553    0.54625   1.00
C6       0.91959    0.79448    0.48664   1.00
C6       0.92358    0.86039    0.51756   1.00
H2       0.88530    0.75194    0.39654   1.00
H2       0.87514    0.70944    0.36910   1.00
H2       0.92296    0.72877    0.37083   1.00
H2       0.96029    0.67053    0.40392   1.00
H2       0.92994    0.63708    0.42822   1.00
H2       0.91903    0.65174    0.38036   1.00
H2       0.86607    0.65908    0.56328   1.00
H2       0.82702    0.67502    0.53468   1.00
H2       0.84755    0.62829    0.52648   1.00
H2       0.94569    0.66265    0.49138   1.00
H2       0.93021    0.64578    0.53692   1.00
H2       0.91507    0.62086    0.49450   1.00
H2       0.86016    0.60260    0.44486   1.00
H2       0.81973    0.60049    0.41292   1.00
H2       0.86283    0.62130    0.39668   1.00
H2       0.79651    0.62560    0.48098   1.00
H2       0.78306    0.67477    0.47932   1.00
H2       0.76874    0.64344    0.44172   1.00
H2       0.79559    0.82594    0.48312   1.00
H2       0.80815    0.87555    0.48191   1.00
H2       0.84312    0.84031    0.46952   1.00
H2       0.77902    0.87808    0.54875   1.00
H2       0.77308    0.82759    0.55426   1.00
H2       0.80015    0.85460    0.58878   1.00
H2       0.89302    0.77551    0.64798   1.00
H2       0.88630    0.74744    0.60565   1.00
H2       0.92731    0.77852    0.60965   1.00
H2       0.87192    0.87404    0.60584   1.00
H2       0.88534    0.84801    0.64788   1.00
H2       0.91891    0.85265    0.60915   1.00
H2       0.89932    0.80242    0.46344   1.00
H2       0.94926    0.79965    0.47619   1.00
H2       0.91686    0.76333    0.49166   1.00
H2       0.95443    0.86211    0.50956   1.00
H2       0.90671    0.87330    0.49378   1.00
H2       0.91980    0.87850    0.54343   1.00
C4       0.24759    0.24814    1.02084   1.00
C4       0.24767    0.24887    0.97912   1.00
C3       0.21314    0.24501    1.04364   1.00
C3       0.21319    0.25011    0.95616   1.00
C3       0.28377    0.25131    1.04123   1.00
C3       0.28406    0.24822    0.95886   1.00
C2       0.24972    0.24884    1.10512   1.00
C2       0.25028    0.25116    0.89488   1.00
C3       0.21412    0.24556    1.08462   1.00
C3       0.21443    0.25086    0.91519   1.00
C3       0.28421    0.25108    1.08258   1.00
C3       0.28470    0.25068    0.91762   1.00
H1       0.18633    0.24209    1.03115   1.00
H1       0.18617    0.25076    0.96852   1.00
C5       0.31930    0.25452    1.02020   1.00
C5       0.31962    0.24548    0.97980   1.00
H1       0.18824    0.24348    1.09955   1.00
H1       0.18855    0.25141    0.90010   1.00
H1       0.31047    0.25228    1.09680   1.00
H1       0.31100    0.25270    0.90368   1.00
O3       0.35319    0.26406    1.03961   1.00
O3       0.35429    0.23706    0.96099   1.00
Si1      0.36685    0.30963    1.04247   1.00
Si1      0.36553    0.19152    0.95279   1.00
C6       0.40584    0.30255    1.07538   1.00
C6       0.38395    0.32352    0.99598   1.00
C6       0.33078    0.34048    1.06253   1.00
C6       0.33183    0.15511    0.96693   1.00
C6       0.37189    0.19008    0.90198   1.00
C6       0.41120    0.18293    0.97477   1.00
C6       0.39666    0.27661    1.11194   1.00
H2       0.42636    0.28553    1.05791   1.00
C6       0.42991    0.33806    1.09147   1.00
H2       0.39275    0.29554    0.98358   1.00
C6       0.35418    0.34140    0.96634   1.00
C6       0.42090    0.35024    0.99336   1.00
H2       0.32155    0.32412    1.08831   1.00
C6       0.34434    0.38142    1.07772   1.00
C6       0.29277    0.34947    1.03849   1.00
C6       0.31905    0.15352    1.01071   1.00
C6       0.29389    0.14870    0.94225   1.00
H2       0.34842    0.12835    0.96212   1.00
H2       0.34241    0.19372    0.89051   1.00
C6       0.39628    0.22418    0.88378   1.00
C6       0.38807    0.15142    0.88393   1.00
H2       0.43218    0.19447    0.95375   1.00
C6       0.41959    0.20552    1.01336   1.00
C6       0.42358    0.13961    0.98244   1.00
H2       0.38530    0.24806    1.10346   1.00
H2       0.37514    0.29056    1.13090   1.00
H2       0.42296    0.27123    1.12917   1.00
H2       0.46029    0.32947    1.09608   1.00
H2       0.42994    0.36292    1.07178   1.00
H2       0.41903    0.34826    1.11964   1.00
H2       0.36607    0.34092    0.93672   1.00
H2       0.32702    0.32498    0.96532   1.00
H2       0.34755    0.37171    0.97352   1.00
H2       0.44569    0.33735    1.00862   1.00
H2       0.43021    0.35422    0.96308   1.00
H2       0.41507    0.37914    1.00550   1.00
H2       0.36016    0.39740    1.05514   1.00
H2       0.31973    0.39951    1.08708   1.00
H2       0.36283    0.37870    1.10332   1.00
H2       0.29651    0.37440    1.01902   1.00
H2       0.28306    0.32523    1.02068   1.00
H2       0.26874    0.35656    1.05828   1.00
H2       0.29559    0.17406    1.01688   1.00
H2       0.30815    0.12445    1.01809   1.00
H2       0.34312    0.15969    1.03048   1.00
H2       0.27902    0.12192    0.95125   1.00
H2       0.27308    0.17241    0.94574   1.00
H2       0.30015    0.14540    0.91122   1.00
H2       0.39302    0.22449    0.85202   1.00
H2       0.38630    0.25256    0.89435   1.00
H2       0.42731    0.22148    0.89035   1.00
H2       0.37192    0.12596    0.89416   1.00
H2       0.38534    0.15199    0.85212   1.00
H2       0.41891    0.14735    0.89085   1.00
H2       0.39932    0.19758    1.03656   1.00
H2       0.44926    0.20035    1.02381   1.00
H2       0.41686    0.23667    1.00834   1.00
H2       0.45443    0.13789    0.99044   1.00
H2       0.40671    0.12670    1.00622   1.00
H2       0.41980    0.12150    0.95657   1.00
C4       0.24814    0.52084    0.74759   1.00
C4       0.24887    0.47912    0.74767   1.00
C3       0.24501    0.54364    0.71314   1.00
C3       0.25011    0.45616    0.71319   1.00
C3       0.25131    0.54123    0.78377   1.00
C3       0.24822    0.45886    0.78406   1.00
C2       0.24884    0.60512    0.74972   1.00
C2       0.25116    0.39488    0.75028   1.00
C3       0.24556    0.58462    0.71412   1.00
C3       0.25086    0.41519    0.71443   1.00
C3       0.25108    0.58258    0.78421   1.00
C3       0.25068    0.41762    0.78470   1.00
H1       0.24209    0.53115    0.68633   1.00
H1       0.25076    0.46852    0.68617   1.00
C5       0.25452    0.52020    0.81930   1.00
C5       0.24548    0.47980    0.81962   1.00
H1       0.24348    0.59955    0.68824   1.00
H1       0.25141    0.40010    0.68855   1.00
H1       0.25228    0.59680    0.81047   1.00
H1       0.25270    0.40368    0.81100   1.00
O3       0.26406    0.53961    0.85319   1.00
O3       0.23706    0.46099    0.85429   1.00
Si1      0.30963    0.54247    0.86685   1.00
Si1      0.19152    0.45279    0.86553   1.00
C6       0.30255    0.57538    0.90584   1.00
C6       0.32352    0.49598    0.88395   1.00
C6       0.34048    0.56253    0.83078   1.00
C6       0.15511    0.46693    0.83183   1.00
C6       0.19008    0.40198    0.87189   1.00
C6       0.18293    0.47477    0.91120   1.00
C6       0.27661    0.61194    0.89666   1.00
H2       0.28553    0.55791    0.92636   1.00
C6       0.33806    0.59147    0.92991   1.00
H2       0.29554    0.48358    0.89275   1.00
C6       0.34140    0.46634    0.85418   1.00
C6       0.35024    0.49336    0.92090   1.00
H2       0.32412    0.58831    0.82155   1.00
C6       0.38142    0.57772    0.84434   1.00
C6       0.34947    0.53849    0.79277   1.00
C6       0.15352    0.51071    0.81905   1.00
C6       0.14870    0.44225    0.79389   1.00
H2       0.12835    0.46212    0.84842   1.00
H2       0.19372    0.39051    0.84241   1.00
C6       0.22418    0.38378    0.89628   1.00
C6       0.15142    0.38393    0.88807   1.00
H2       0.19447    0.45375    0.93218   1.00
C6       0.20552    0.51336    0.91959   1.00
C6       0.13961    0.48244    0.92358   1.00
H2       0.24806    0.60346    0.88530   1.00
H2       0.29056    0.63090    0.87514   1.00
H2       0.27123    0.62917    0.92296   1.00
H2       0.32947    0.59608    0.96029   1.00
H2       0.36292    0.57178    0.92994   1.00
H2       0.34826    0.61964    0.91903   1.00
H2       0.34092    0.43672    0.86607   1.00
H2       0.32498    0.46532    0.82702   1.00
H2       0.37171    0.47352    0.84755   1.00
H2       0.33735    0.50862    0.94569   1.00
H2       0.35422    0.46308    0.93021   1.00
H2       0.37914    0.50550    0.91507   1.00
H2       0.39740    0.55514    0.86016   1.00
H2       0.39951    0.58708    0.81973   1.00
H2       0.37870    0.60332    0.86283   1.00
H2       0.37440    0.51902    0.79651   1.00
H2       0.32523    0.52068    0.78306   1.00
H2       0.35656    0.55828    0.76874   1.00
H2       0.17406    0.51688    0.79559   1.00
H2       0.12445    0.51809    0.80815   1.00
H2       0.15969    0.53048    0.84312   1.00
H2       0.12192    0.45125    0.77902   1.00
H2       0.17241    0.44574    0.77308   1.00
H2       0.14540    0.41122    0.80015   1.00
H2       0.22449    0.35202    0.89302   1.00
H2       0.25256    0.39435    0.88630   1.00
H2       0.22148    0.39035    0.92731   1.00
H2       0.12596    0.39416    0.87192   1.00
H2       0.15199    0.35212    0.88534   1.00
H2       0.14735    0.39085    0.91891   1.00
H2       0.19758    0.53656    0.89932   1.00
H2       0.20035    0.52381    0.94926   1.00
H2       0.23667    0.50834    0.91686   1.00
H2       0.13789    0.49044    0.95443   1.00
H2       0.12670    0.50622    0.90671   1.00
H2       0.12150    0.45657    0.91980   1.00
C4       -0.02084   0.24759    0.75186   1.00
C4       0.02088    0.24767    0.75113   1.00
C3       -0.04364   0.21314    0.75499   1.00
C3       0.04384    0.21319    0.74989   1.00
C3       -0.04123   0.28377    0.74869   1.00
C3       0.04114    0.28406    0.75178   1.00
C2       -0.10512   0.24972    0.75116   1.00
C2       0.10512    0.25028    0.74884   1.00
C3       -0.08462   0.21412    0.75444   1.00
C3       0.08481    0.21443    0.74914   1.00
C3       -0.08258   0.28421    0.74892   1.00
C3       0.08238    0.28470    0.74932   1.00
H1       -0.03115   0.18633    0.75791   1.00
H1       0.03148    0.18617    0.74924   1.00
C5       -0.02020   0.31930    0.74548   1.00
C5       0.02020    0.31962    0.75452   1.00
H1       -0.09955   0.18824    0.75652   1.00
H1       0.09990    0.18855    0.74859   1.00
H1       -0.09680   0.31047    0.74772   1.00
H1       0.09632    0.31100    0.74730   1.00
O3       -0.03961   0.35319    0.73594   1.00
O3       0.03901    0.35429    0.76294   1.00
Si1      -0.04247   0.36685    0.69037   1.00
Si1      0.04721    0.36553    0.80848   1.00
C6       -0.07538   0.40584    0.69745   1.00
C6       0.00402    0.38395    0.67648   1.00
C6       -0.06253   0.33078    0.65952   1.00
C6       0.03307    0.33183    0.84489   1.00
C6       0.09802    0.37189    0.80992   1.00
C6       0.02523    0.41120    0.81707   1.00
C6       -0.11194   0.39666    0.72339   1.00
H2       -0.05791   0.42636    0.71447   1.00
C6       -0.09147   0.42991    0.66194   1.00
H2       0.01642    0.39275    0.70446   1.00
C6       0.03366    0.35418    0.65860   1.00
C6       0.00664    0.42090    0.64976   1.00
H2       -0.08831   0.32155    0.67588   1.00
C6       -0.07772   0.34434    0.61858   1.00
C6       -0.03849   0.29277    0.65053   1.00
C6       -0.01071   0.31905    0.84648   1.00
C6       0.05775    0.29389    0.85130   1.00
H2       0.03788    0.34842    0.87165   1.00
H2       0.10949    0.34241    0.80628   1.00
C6       0.11622    0.39628    0.77582   1.00
C6       0.11607    0.38807    0.84858   1.00
H2       0.04625    0.43218    0.80553   1.00
C6       -0.01336   0.41959    0.79448   1.00
C6       0.01756    0.42358    0.86039   1.00
H2       -0.10346   0.38530    0.75194   1.00
H2       -0.13090   0.37514    0.70944   1.00
H2       -0.12917   0.42296    0.72877   1.00
H2       -0.09608   0.46029    0.67053   1.00
H2       -0.07178   0.42994    0.63708   1.00
H2       -0.11964   0.41903    0.65174   1.00
H2       0.06328    0.36607    0.65908   1.00
H2       0.03468    0.32702    0.67502   1.00
H2       0.02648    0.34755    0.62829   1.00
H2       -0.00862   0.44569    0.66265   1.00
H2       0.03692    0.43021    0.64578   1.00
H2       -0.00550   0.41507    0.62086   1.00
H2       -0.05514   0.36016    0.60260   1.00
H2       -0.08708   0.31973    0.60049   1.00
H2       -0.10332   0.36283    0.62130   1.00
H2       -0.01902   0.29651    0.62560   1.00
H2       -0.02068   0.28306    0.67477   1.00
H2       -0.05828   0.26874    0.64344   1.00
H2       -0.01688   0.29559    0.82594   1.00
H2       -0.01809   0.30815    0.87555   1.00
H2       -0.03048   0.34312    0.84031   1.00
H2       0.04875    0.27902    0.87808   1.00
H2       0.05426    0.27308    0.82759   1.00
H2       0.08878    0.30015    0.85460   1.00
H2       0.14798    0.39302    0.77551   1.00
H2       0.10565    0.38630    0.74744   1.00
H2       0.10965    0.42731    0.77852   1.00
H2       0.10584    0.37192    0.87404   1.00
H2       0.14788    0.38534    0.84801   1.00
H2       0.10915    0.41891    0.85265   1.00
H2       -0.03656   0.39932    0.80242   1.00
H2       -0.02381   0.44926    0.79965   1.00
H2       -0.00834   0.41686    0.76333   1.00
H2       0.00956    0.45443    0.86211   1.00
H2       -0.00622   0.40671    0.87330   1.00
H2       0.04343    0.41980    0.87850   1.00
C4       0.52084    0.24759    0.74814   1.00
C4       0.47912    0.24767    0.74887   1.00
C3       0.54364    0.21314    0.74501   1.00
C3       0.45616    0.21319    0.75011   1.00
C3       0.54123    0.28377    0.75131   1.00
C3       0.45886    0.28406    0.74822   1.00
C2       0.60512    0.24972    0.74884   1.00
C2       0.39488    0.25028    0.75116   1.00
C3       0.58462    0.21412    0.74556   1.00
C3       0.41519    0.21443    0.75086   1.00
C3       0.58258    0.28421    0.75108   1.00
C3       0.41762    0.28470    0.75068   1.00
H1       0.53115    0.18633    0.74209   1.00
H1       0.46852    0.18617    0.75076   1.00
C5       0.52020    0.31930    0.75452   1.00
C5       0.47980    0.31962    0.74548   1.00
H1       0.59955    0.18824    0.74348   1.00
H1       0.40010    0.18855    0.75141   1.00
H1       0.59680    0.31047    0.75228   1.00
H1       0.40368    0.31100    0.75270   1.00
O3       0.53961    0.35319    0.76406   1.00
O3       0.46099    0.35429    0.73706   1.00
Si1      0.54247    0.36685    0.80963   1.00
Si1      0.45279    0.36553    0.69152   1.00
C6       0.57538    0.40584    0.80255   1.00
C6       0.49598    0.38395    0.82352   1.00
C6       0.56253    0.33078    0.84048   1.00
C6       0.46693    0.33183    0.65511   1.00
C6       0.40198    0.37189    0.69008   1.00
C6       0.47477    0.41120    0.68293   1.00
C6       0.61194    0.39666    0.77661   1.00
H2       0.55791    0.42636    0.78553   1.00
C6       0.59147    0.42991    0.83806   1.00
H2       0.48358    0.39275    0.79554   1.00
C6       0.46634    0.35418    0.84140   1.00
C6       0.49336    0.42090    0.85024   1.00
H2       0.58831    0.32155    0.82412   1.00
C6       0.57772    0.34434    0.88142   1.00
C6       0.53849    0.29277    0.84947   1.00
C6       0.51071    0.31905    0.65352   1.00
C6       0.44225    0.29389    0.64870   1.00
H2       0.46212    0.34842    0.62835   1.00
H2       0.39051    0.34241    0.69372   1.00
C6       0.38378    0.39628    0.72418   1.00
C6       0.38393    0.38807    0.65142   1.00
H2       0.45375    0.43218    0.69447   1.00
C6       0.51336    0.41959    0.70552   1.00
C6       0.48244    0.42358    0.63961   1.00
H2       0.60346    0.38530    0.74806   1.00
H2       0.63090    0.37514    0.79056   1.00
H2       0.62917    0.42296    0.77123   1.00
H2       0.59608    0.46029    0.82947   1.00
H2       0.57178    0.42994    0.86292   1.00
H2       0.61964    0.41903    0.84826   1.00
H2       0.43672    0.36607    0.84092   1.00
H2       0.46532    0.32702    0.82498   1.00
H2       0.47352    0.34755    0.87171   1.00
H2       0.50862    0.44569    0.83735   1.00
H2       0.46308    0.43021    0.85422   1.00
H2       0.50550    0.41507    0.87914   1.00
H2       0.55514    0.36016    0.89740   1.00
H2       0.58708    0.31973    0.89951   1.00
H2       0.60332    0.36283    0.87870   1.00
H2       0.51902    0.29651    0.87440   1.00
H2       0.52068    0.28306    0.82523   1.00
H2       0.55828    0.26874    0.85656   1.00
H2       0.51688    0.29559    0.67406   1.00
H2       0.51809    0.30815    0.62445   1.00
H2       0.53048    0.34312    0.65969   1.00
H2       0.45125    0.27902    0.62192   1.00
H2       0.44574    0.27308    0.67241   1.00
H2       0.41122    0.30015    0.64540   1.00
H2       0.35202    0.39302    0.72449   1.00
H2       0.39435    0.38630    0.75256   1.00
H2       0.39035    0.42731    0.72148   1.00
H2       0.39416    0.37192    0.62596   1.00
H2       0.35212    0.38534    0.65199   1.00
H2       0.39085    0.41891    0.64735   1.00
H2       0.53656    0.39932    0.69758   1.00
H2       0.52381    0.44926    0.70035   1.00
H2       0.50834    0.41686    0.73667   1.00
H2       0.49044    0.45443    0.63789   1.00
H2       0.50622    0.40671    0.62670   1.00
H2       0.45657    0.41980    0.62150   1.00
C4       0.25186    -0.02084   0.74759   1.00
C4       0.25113    0.02088    0.74767   1.00
C3       0.25499    -0.04364   0.71314   1.00
C3       0.24989    0.04384    0.71319   1.00
C3       0.24869    -0.04123   0.78377   1.00
C3       0.25178    0.04114    0.78406   1.00
C2       0.25116    -0.10512   0.74972   1.00
C2       0.24884    0.10512    0.75028   1.00
C3       0.25444    -0.08462   0.71412   1.00
C3       0.24914    0.08481    0.71443   1.00
C3       0.24892    -0.08258   0.78421   1.00
C3       0.24932    0.08238    0.78470   1.00
H1       0.25791    -0.03115   0.68633   1.00
H1       0.24924    0.03148    0.68617   1.00
C5       0.24548    -0.02020   0.81930   1.00
C5       0.25452    0.02020    0.81962   1.00
H1       0.25652    -0.09955   0.68824   1.00
H1       0.24859    0.09990    0.68855   1.00
H1       0.24772    -0.09680   0.81047   1.00
H1       0.24730    0.09632    0.81100   1.00
O3       0.23594    -0.03961   0.85319   1.00
O3       0.26294    0.03901    0.85429   1.00
Si1      0.19037    -0.04247   0.86685   1.00
Si1      0.30848    0.04721    0.86553   1.00
C6       0.19745    -0.07538   0.90584   1.00
C6       0.17648    0.00402    0.88395   1.00
C6       0.15952    -0.06253   0.83078   1.00
C6       0.34489    0.03307    0.83183   1.00
C6       0.30992    0.09802    0.87189   1.00
C6       0.31707    0.02523    0.91120   1.00
C6       0.22339    -0.11194   0.89666   1.00
H2       0.21447    -0.05791   0.92636   1.00
C6       0.16194    -0.09147   0.92991   1.00
H2       0.20446    0.01642    0.89275   1.00
C6       0.15860    0.03366    0.85418   1.00
C6       0.14976    0.00664    0.92090   1.00
H2       0.17588    -0.08831   0.82155   1.00
C6       0.11858    -0.07772   0.84434   1.00
C6       0.15053    -0.03849   0.79277   1.00
C6       0.34648    -0.01071   0.81905   1.00
C6       0.35130    0.05775    0.79389   1.00
H2       0.37165    0.03788    0.84842   1.00
H2       0.30628    0.10949    0.84241   1.00
C6       0.27582    0.11622    0.89628   1.00
C6       0.34858    0.11607    0.88807   1.00
H2       0.30553    0.04625    0.93218   1.00
C6       0.29448    -0.01336   0.91959   1.00
C6       0.36039    0.01756    0.92358   1.00
H2       0.25194    -0.10346   0.88530   1.00
H2       0.20944    -0.13090   0.87514   1.00
H2       0.22877    -0.12917   0.92296   1.00
H2       0.17053    -0.09608   0.96029   1.00
H2       0.13708    -0.07178   0.92994   1.00
H2       0.15174    -0.11964   0.91903   1.00
H2       0.15908    0.06328    0.86607   1.00
H2       0.17502    0.03468    0.82702   1.00
H2       0.12829    0.02648    0.84755   1.00
H2       0.16265    -0.00862   0.94569   1.00
H2       0.14578    0.03692    0.93021   1.00
H2       0.12086    -0.00550   0.91507   1.00
H2       0.10260    -0.05514   0.86016   1.00
H2       0.10049    -0.08708   0.81973   1.00
H2       0.12130    -0.10332   0.86283   1.00
H2       0.12560    -0.01902   0.79651   1.00
H2       0.17477    -0.02068   0.78306   1.00
H2       0.14344    -0.05828   0.76874   1.00
H2       0.32594    -0.01688   0.79559   1.00
H2       0.37555    -0.01809   0.80815   1.00
H2       0.34031    -0.03048   0.84312   1.00
H2       0.37808    0.04875    0.77902   1.00
H2       0.32759    0.05426    0.77308   1.00
H2       0.35460    0.08878    0.80015   1.00
H2       0.27551    0.14798    0.89302   1.00
H2       0.24744    0.10565    0.88630   1.00
H2       0.27852    0.10965    0.92731   1.00
H2       0.37404    0.10584    0.87192   1.00
H2       0.34801    0.14788    0.88534   1.00
H2       0.35265    0.10915    0.91891   1.00
H2       0.30242    -0.03656   0.89932   1.00
H2       0.29965    -0.02381   0.94926   1.00
H2       0.26333    -0.00834   0.91686   1.00
H2       0.36211    0.00956    0.95443   1.00
H2       0.37330    -0.00622   0.90671   1.00
H2       0.37850    0.04343    0.91980   1.00
C4       0.24759    0.25186    0.47916   1.00
C4       0.24767    0.25113    0.52088   1.00
C3       0.21314    0.25499    0.45636   1.00
C3       0.21319    0.24989    0.54384   1.00
C3       0.28377    0.24869    0.45877   1.00
C3       0.28406    0.25178    0.54114   1.00
C2       0.24972    0.25116    0.39488   1.00
C2       0.25028    0.24884    0.60512   1.00
C3       0.21412    0.25444    0.41538   1.00
C3       0.21443    0.24914    0.58481   1.00
C3       0.28421    0.24892    0.41742   1.00
C3       0.28470    0.24932    0.58238   1.00
H1       0.18633    0.25791    0.46885   1.00
H1       0.18617    0.24924    0.53148   1.00
C5       0.31930    0.24548    0.47980   1.00
C5       0.31962    0.25452    0.52020   1.00
H1       0.18824    0.25652    0.40045   1.00
H1       0.18855    0.24859    0.59990   1.00
H1       0.31047    0.24772    0.40320   1.00
H1       0.31100    0.24730    0.59632   1.00
O3       0.35319    0.23594    0.46039   1.00
O3       0.35429    0.26294    0.53901   1.00
Si1      0.36685    0.19037    0.45753   1.00
Si1      0.36553    0.30848    0.54721   1.00
C6       0.40584    0.19745    0.42462   1.00
C6       0.38395    0.17648    0.50402   1.00
C6       0.33078    0.15952    0.43747   1.00
C6       0.33183    0.34489    0.53307   1.00
C6       0.37189    0.30992    0.59802   1.00
C6       0.41120    0.31707    0.52523   1.00
C6       0.39666    0.22339    0.38806   1.00
H2       0.42636    0.21447    0.44209   1.00
C6       0.42991    0.16194    0.40853   1.00
H2       0.39275    0.20446    0.51642   1.00
C6       0.35418    0.15860    0.53366   1.00
C6       0.42090    0.14976    0.50664   1.00
H2       0.32155    0.17588    0.41169   1.00
C6       0.34434    0.11858    0.42228   1.00
C6       0.29277    0.15053    0.46151   1.00
C6       0.31905    0.34648    0.48929   1.00
C6       0.29389    0.35130    0.55775   1.00
H2       0.34842    0.37165    0.53788   1.00
H2       0.34241    0.30628    0.60949   1.00
C6       0.39628    0.27582    0.61622   1.00
C6       0.38807    0.34858    0.61607   1.00
H2       0.43218    0.30553    0.54625   1.00
C6       0.41959    0.29448    0.48664   1.00
C6       0.42358    0.36039    0.51756   1.00
H2       0.38530    0.25194    0.39654   1.00
H2       0.37514    0.20944    0.36910   1.00
H2       0.42296    0.22877    0.37083   1.00
H2       0.46029    0.17053    0.40392   1.00
H2       0.42994    0.13708    0.42822   1.00
H2       0.41903    0.15174    0.38036   1.00
H2       0.36607    0.15908    0.56328   1.00
H2       0.32702    0.17502    0.53468   1.00
H2       0.34755    0.12829    0.52648   1.00
H2       0.44569    0.16265    0.49138   1.00
H2       0.43021    0.14578    0.53692   1.00
H2       0.41507    0.12086    0.49450   1.00
H2       0.36016    0.10260    0.44486   1.00
H2       0.31973    0.10049    0.41292   1.00
H2       0.36283    0.12130    0.39668   1.00
H2       0.29651    0.12560    0.48098   1.00
H2       0.28306    0.17477    0.47932   1.00
H2       0.26874    0.14344    0.44172   1.00
H2       0.29559    0.32594    0.48312   1.00
H2       0.30815    0.37555    0.48191   1.00
H2       0.34312    0.34031    0.46952   1.00
H2       0.27902    0.37808    0.54875   1.00
H2       0.27308    0.32759    0.55426   1.00
H2       0.30015    0.35460    0.58878   1.00
H2       0.39302    0.27551    0.64798   1.00
H2       0.38630    0.24744    0.60565   1.00
H2       0.42731    0.27852    0.60965   1.00
H2       0.37192    0.37404    0.60584   1.00
H2       0.38534    0.34801    0.64788   1.00
H2       0.41891    0.35265    0.60915   1.00
H2       0.39932    0.30242    0.46344   1.00
H2       0.44926    0.29965    0.47619   1.00
H2       0.41686    0.26333    0.49166   1.00
H2       0.45443    0.36211    0.50956   1.00
H2       0.40671    0.37330    0.49378   1.00
H2       0.41980    0.37850    0.54343   1.00
C4       0.24759    0.74814    0.52084   1.00
C4       0.24767    0.74887    0.47912   1.00
C3       0.21314    0.74501    0.54364   1.00
C3       0.21319    0.75011    0.45616   1.00
C3       0.28377    0.75131    0.54123   1.00
C3       0.28406    0.74822    0.45886   1.00
C2       0.24972    0.74884    0.60512   1.00
C2       0.25028    0.75116    0.39488   1.00
C3       0.21412    0.74556    0.58462   1.00
C3       0.21443    0.75086    0.41519   1.00
C3       0.28421    0.75108    0.58258   1.00
C3       0.28470    0.75068    0.41762   1.00
H1       0.18633    0.74209    0.53115   1.00
H1       0.18617    0.75076    0.46852   1.00
C5       0.31930    0.75452    0.52020   1.00
C5       0.31962    0.74548    0.47980   1.00
H1       0.18824    0.74348    0.59955   1.00
H1       0.18855    0.75141    0.40010   1.00
H1       0.31047    0.75228    0.59680   1.00
H1       0.31100    0.75270    0.40368   1.00
O3       0.35319    0.76406    0.53961   1.00
O3       0.35429    0.73706    0.46099   1.00
Si1      0.36685    0.80963    0.54247   1.00
Si1      0.36553    0.69152    0.45279   1.00
C6       0.40584    0.80255    0.57538   1.00
C6       0.38395    0.82352    0.49598   1.00
C6       0.33078    0.84048    0.56253   1.00
C6       0.33183    0.65511    0.46693   1.00
C6       0.37189    0.69008    0.40198   1.00
C6       0.41120    0.68293    0.47477   1.00
C6       0.39666    0.77661    0.61194   1.00
H2       0.42636    0.78553    0.55791   1.00
C6       0.42991    0.83806    0.59147   1.00
H2       0.39275    0.79554    0.48358   1.00
C6       0.35418    0.84140    0.46634   1.00
C6       0.42090    0.85024    0.49336   1.00
H2       0.32155    0.82412    0.58831   1.00
C6       0.34434    0.88142    0.57772   1.00
C6       0.29277    0.84947    0.53849   1.00
C6       0.31905    0.65352    0.51071   1.00
C6       0.29389    0.64870    0.44225   1.00
H2       0.34842    0.62835    0.46212   1.00
H2       0.34241    0.69372    0.39051   1.00
C6       0.39628    0.72418    0.38378   1.00
C6       0.38807    0.65142    0.38393   1.00
H2       0.43218    0.69447    0.45375   1.00
C6       0.41959    0.70552    0.51336   1.00
C6       0.42358    0.63961    0.48244   1.00
H2       0.38530    0.74806    0.60346   1.00
H2       0.37514    0.79056    0.63090   1.00
H2       0.42296    0.77123    0.62917   1.00
H2       0.46029    0.82947    0.59608   1.00
H2       0.42994    0.86292    0.57178   1.00
H2       0.41903    0.84826    0.61964   1.00
H2       0.36607    0.84092    0.43672   1.00
H2       0.32702    0.82498    0.46532   1.00
H2       0.34755    0.87171    0.47352   1.00
H2       0.44569    0.83735    0.50862   1.00
H2       0.43021    0.85422    0.46308   1.00
H2       0.41507    0.87914    0.50550   1.00
H2       0.36016    0.89740    0.55514   1.00
H2       0.31973    0.89951    0.58708   1.00
H2       0.36283    0.87870    0.60332   1.00
H2       0.29651    0.87440    0.51902   1.00
H2       0.28306    0.82523    0.52068   1.00
H2       0.26874    0.85656    0.55828   1.00
H2       0.29559    0.67406    0.51688   1.00
H2       0.30815    0.62445    0.51809   1.00
H2       0.34312    0.65969    0.53048   1.00
H2       0.27902    0.62192    0.45125   1.00
H2       0.27308    0.67241    0.44574   1.00
H2       0.30015    0.64540    0.41122   1.00
H2       0.39302    0.72449    0.35202   1.00
H2       0.38630    0.75256    0.39435   1.00
H2       0.42731    0.72148    0.39035   1.00
H2       0.37192    0.62596    0.39416   1.00
H2       0.38534    0.65199    0.35212   1.00
H2       0.41891    0.64735    0.39085   1.00
H2       0.39932    0.69758    0.53656   1.00
H2       0.44926    0.70035    0.52381   1.00
H2       0.41686    0.73667    0.50834   1.00
H2       0.45443    0.63789    0.49044   1.00
H2       0.40671    0.62670    0.50622   1.00
H2       0.41980    0.62150    0.45657   1.00
C4       0.24814    1.02084    0.24759   1.00
C4       0.24887    0.97912    0.24767   1.00
C3       0.24501    1.04364    0.21314   1.00
C3       0.25011    0.95616    0.21319   1.00
C3       0.25131    1.04123    0.28377   1.00
C3       0.24822    0.95886    0.28406   1.00
C2       0.24884    1.10512    0.24972   1.00
C2       0.25116    0.89488    0.25028   1.00
C3       0.24556    1.08462    0.21412   1.00
C3       0.25086    0.91519    0.21443   1.00
C3       0.25108    1.08258    0.28421   1.00
C3       0.25068    0.91762    0.28470   1.00
H1       0.24209    1.03115    0.18633   1.00
H1       0.25076    0.96852    0.18617   1.00
C5       0.25452    1.02020    0.31930   1.00
C5       0.24548    0.97980    0.31962   1.00
H1       0.24348    1.09955    0.18824   1.00
H1       0.25141    0.90010    0.18855   1.00
H1       0.25228    1.09680    0.31047   1.00
H1       0.25270    0.90368    0.31100   1.00
O3       0.26406    1.03961    0.35319   1.00
O3       0.23706    0.96099    0.35429   1.00
Si1      0.30963    1.04247    0.36685   1.00
Si1      0.19152    0.95279    0.36553   1.00
C6       0.30255    1.07538    0.40584   1.00
C6       0.32352    0.99598    0.38395   1.00
C6       0.34048    1.06253    0.33078   1.00
C6       0.15511    0.96693    0.33183   1.00
C6       0.19008    0.90198    0.37189   1.00
C6       0.18293    0.97477    0.41120   1.00
C6       0.27661    1.11194    0.39666   1.00
H2       0.28553    1.05791    0.42636   1.00
C6       0.33806    1.09147    0.42991   1.00
H2       0.29554    0.98358    0.39275   1.00
C6       0.34140    0.96634    0.35418   1.00
C6       0.35024    0.99336    0.42090   1.00
H2       0.32412    1.08831    0.32155   1.00
C6       0.38142    1.07772    0.34434   1.00
C6       0.34947    1.03849    0.29277   1.00
C6       0.15352    1.01071    0.31905   1.00
C6       0.14870    0.94225    0.29389   1.00
H2       0.12835    0.96212    0.34842   1.00
H2       0.19372    0.89051    0.34241   1.00
C6       0.22418    0.88378    0.39628   1.00
C6       0.15142    0.88393    0.38807   1.00
H2       0.19447    0.95375    0.43218   1.00
C6       0.20552    1.01336    0.41959   1.00
C6       0.13961    0.98244    0.42358   1.00
H2       0.24806    1.10346    0.38530   1.00
H2       0.29056    1.13090    0.37514   1.00
H2       0.27123    1.12917    0.42296   1.00
H2       0.32947    1.09608    0.46029   1.00
H2       0.36292    1.07178    0.42994   1.00
H2       0.34826    1.11964    0.41903   1.00
H2       0.34092    0.93672    0.36607   1.00
H2       0.32498    0.96532    0.32702   1.00
H2       0.37171    0.97352    0.34755   1.00
H2       0.33735    1.00862    0.44569   1.00
H2       0.35422    0.96308    0.43021   1.00
H2       0.37914    1.00550    0.41507   1.00
H2       0.39740    1.05514    0.36016   1.00
H2       0.39951    1.08708    0.31973   1.00
H2       0.37870    1.10332    0.36283   1.00
H2       0.37440    1.01902    0.29651   1.00
H2       0.32523    1.02068    0.28306   1.00
H2       0.35656    1.05828    0.26874   1.00
H2       0.17406    1.01688    0.29559   1.00
H2       0.12445    1.01809    0.30815   1.00
H2       0.15969    1.03048    0.34312   1.00
H2       0.12192    0.95125    0.27902   1.00
H2       0.17241    0.94574    0.27308   1.00
H2       0.14540    0.91122    0.30015   1.00
H2       0.22449    0.85202    0.39302   1.00
H2       0.25256    0.89435    0.38630   1.00
H2       0.22148    0.89035    0.42731   1.00
H2       0.12596    0.89416    0.37192   1.00
H2       0.15199    0.85212    0.38534   1.00
H2       0.14735    0.89085    0.41891   1.00
H2       0.19758    1.03656    0.39932   1.00
H2       0.20035    1.02381    0.44926   1.00
H2       0.23667    1.00834    0.41686   1.00
H2       0.13789    0.99044    0.45443   1.00
H2       0.12670    1.00622    0.40671   1.00
H2       0.12150    0.95657    0.41980   1.00
C4       -0.02084   0.74759    0.25186   1.00
C4       0.02088    0.74767    0.25113   1.00
C3       -0.04364   0.71314    0.25499   1.00
C3       0.04384    0.71319    0.24989   1.00
C3       -0.04123   0.78377    0.24869   1.00
C3       0.04114    0.78406    0.25178   1.00
C2       -0.10512   0.74972    0.25116   1.00
C2       0.10512    0.75028    0.24884   1.00
C3       -0.08462   0.71412    0.25444   1.00
C3       0.08481    0.71443    0.24914   1.00
C3       -0.08258   0.78421    0.24892   1.00
C3       0.08238    0.78470    0.24932   1.00
H1       -0.03115   0.68633    0.25791   1.00
H1       0.03148    0.68617    0.24924   1.00
C5       -0.02020   0.81930    0.24548   1.00
C5       0.02020    0.81962    0.25452   1.00
H1       -0.09955   0.68824    0.25652   1.00
H1       0.09990    0.68855    0.24859   1.00
H1       -0.09680   0.81047    0.24772   1.00
H1       0.09632    0.81100    0.24730   1.00
O3       -0.03961   0.85319    0.23594   1.00
O3       0.03901    0.85429    0.26294   1.00
Si1      -0.04247   0.86685    0.19037   1.00
Si1      0.04721    0.86553    0.30848   1.00
C6       -0.07538   0.90584    0.19745   1.00
C6       0.00402    0.88395    0.17648   1.00
C6       -0.06253   0.83078    0.15952   1.00
C6       0.03307    0.83183    0.34489   1.00
C6       0.09802    0.87189    0.30992   1.00
C6       0.02523    0.91120    0.31707   1.00
C6       -0.11194   0.89666    0.22339   1.00
H2       -0.05791   0.92636    0.21447   1.00
C6       -0.09147   0.92991    0.16194   1.00
H2       0.01642    0.89275    0.20446   1.00
C6       0.03366    0.85418    0.15860   1.00
C6       0.00664    0.92090    0.14976   1.00
H2       -0.08831   0.82155    0.17588   1.00
C6       -0.07772   0.84434    0.11858   1.00
C6       -0.03849   0.79277    0.15053   1.00
C6       -0.01071   0.81905    0.34648   1.00
C6       0.05775    0.79389    0.35130   1.00
H2       0.03788    0.84842    0.37165   1.00
H2       0.10949    0.84241    0.30628   1.00
C6       0.11622    0.89628    0.27582   1.00
C6       0.11607    0.88807    0.34858   1.00
H2       0.04625    0.93218    0.30553   1.00
C6       -0.01336   0.91959    0.29448   1.00
C6       0.01756    0.92358    0.36039   1.00
H2       -0.10346   0.88530    0.25194   1.00
H2       -0.13090   0.87514    0.20944   1.00
H2       -0.12917   0.92296    0.22877   1.00
H2       -0.09608   0.96029    0.17053   1.00
H2       -0.07178   0.92994    0.13708   1.00
H2       -0.11964   0.91903    0.15174   1.00
H2       0.06328    0.86607    0.15908   1.00
H2       0.03468    0.82702    0.17502   1.00
H2       0.02648    0.84755    0.12829   1.00
H2       -0.00862   0.94569    0.16265   1.00
H2       0.03692    0.93021    0.14578   1.00
H2       -0.00550   0.91507    0.12086   1.00
H2       -0.05514   0.86016    0.10260   1.00
H2       -0.08708   0.81973    0.10049   1.00
H2       -0.10332   0.86283    0.12130   1.00
H2       -0.01902   0.79651    0.12560   1.00
H2       -0.02068   0.78306    0.17477   1.00
H2       -0.05828   0.76874    0.14344   1.00
H2       -0.01688   0.79559    0.32594   1.00
H2       -0.01809   0.80815    0.37555   1.00
H2       -0.03048   0.84312    0.34031   1.00
H2       0.04875    0.77902    0.37808   1.00
H2       0.05426    0.77308    0.32759   1.00
H2       0.08878    0.80015    0.35460   1.00
H2       0.14798    0.89302    0.27551   1.00
H2       0.10565    0.88630    0.24744   1.00
H2       0.10965    0.92731    0.27852   1.00
H2       0.10584    0.87192    0.37404   1.00
H2       0.14788    0.88534    0.34801   1.00
H2       0.10915    0.91891    0.35265   1.00
H2       -0.03656   0.89932    0.30242   1.00
H2       -0.02381   0.94926    0.29965   1.00
H2       -0.00834   0.91686    0.26333   1.00
H2       0.00956    0.95443    0.36211   1.00
H2       -0.00622   0.90671    0.37330   1.00
H2       0.04343    0.91980    0.37850   1.00
C4       0.52084    0.74759    0.24814   1.00
C4       0.47912    0.74767    0.24887   1.00
C3       0.54364    0.71314    0.24501   1.00
C3       0.45616    0.71319    0.25011   1.00
C3       0.54123    0.78377    0.25131   1.00
C3       0.45886    0.78406    0.24822   1.00
C2       0.60512    0.74972    0.24884   1.00
C2       0.39488    0.75028    0.25116   1.00
C3       0.58462    0.71412    0.24556   1.00
C3       0.41519    0.71443    0.25086   1.00
C3       0.58258    0.78421    0.25108   1.00
C3       0.41762    0.78470    0.25068   1.00
H1       0.53115    0.68633    0.24209   1.00
H1       0.46852    0.68617    0.25076   1.00
C5       0.52020    0.81930    0.25452   1.00
C5       0.47980    0.81962    0.24548   1.00
H1       0.59955    0.68824    0.24348   1.00
H1       0.40010    0.68855    0.25141   1.00
H1       0.59680    0.81047    0.25228   1.00
H1       0.40368    0.81100    0.25270   1.00
O3       0.53961    0.85319    0.26406   1.00
O3       0.46099    0.85429    0.23706   1.00
Si1      0.54247    0.86685    0.30963   1.00
Si1      0.45279    0.86553    0.19152   1.00
C6       0.57538    0.90584    0.30255   1.00
C6       0.49598    0.88395    0.32352   1.00
C6       0.56253    0.83078    0.34048   1.00
C6       0.46693    0.83183    0.15511   1.00
C6       0.40198    0.87189    0.19008   1.00
C6       0.47477    0.91120    0.18293   1.00
C6       0.61194    0.89666    0.27661   1.00
H2       0.55791    0.92636    0.28553   1.00
C6       0.59147    0.92991    0.33806   1.00
H2       0.48358    0.89275    0.29554   1.00
C6       0.46634    0.85418    0.34140   1.00
C6       0.49336    0.92090    0.35024   1.00
H2       0.58831    0.82155    0.32412   1.00
C6       0.57772    0.84434    0.38142   1.00
C6       0.53849    0.79277    0.34947   1.00
C6       0.51071    0.81905    0.15352   1.00
C6       0.44225    0.79389    0.14870   1.00
H2       0.46212    0.84842    0.12835   1.00
H2       0.39051    0.84241    0.19372   1.00
C6       0.38378    0.89628    0.22418   1.00
C6       0.38393    0.88807    0.15142   1.00
H2       0.45375    0.93218    0.19447   1.00
C6       0.51336    0.91959    0.20552   1.00
C6       0.48244    0.92358    0.13961   1.00
H2       0.60346    0.88530    0.24806   1.00
H2       0.63090    0.87514    0.29056   1.00
H2       0.62917    0.92296    0.27123   1.00
H2       0.59608    0.96029    0.32947   1.00
H2       0.57178    0.92994    0.36292   1.00
H2       0.61964    0.91903    0.34826   1.00
H2       0.43672    0.86607    0.34092   1.00
H2       0.46532    0.82702    0.32498   1.00
H2       0.47352    0.84755    0.37171   1.00
H2       0.50862    0.94569    0.33735   1.00
H2       0.46308    0.93021    0.35422   1.00
H2       0.50550    0.91507    0.37914   1.00
H2       0.55514    0.86016    0.39740   1.00
H2       0.58708    0.81973    0.39951   1.00
H2       0.60332    0.86283    0.37870   1.00
H2       0.51902    0.79651    0.37440   1.00
H2       0.52068    0.78306    0.32523   1.00
H2       0.55828    0.76874    0.35656   1.00
H2       0.51688    0.79559    0.17406   1.00
H2       0.51809    0.80815    0.12445   1.00
H2       0.53048    0.84312    0.15969   1.00
H2       0.45125    0.77902    0.12192   1.00
H2       0.44574    0.77308    0.17241   1.00
H2       0.41122    0.80015    0.14540   1.00
H2       0.35202    0.89302    0.22449   1.00
H2       0.39435    0.88630    0.25256   1.00
H2       0.39035    0.92731    0.22148   1.00
H2       0.39416    0.87192    0.12596   1.00
H2       0.35212    0.88534    0.15199   1.00
H2       0.39085    0.91891    0.14735   1.00
H2       0.53656    0.89932    0.19758   1.00
H2       0.52381    0.94926    0.20035   1.00
H2       0.50834    0.91686    0.23667   1.00
H2       0.49044    0.95443    0.13789   1.00
H2       0.50622    0.90671    0.12670   1.00
H2       0.45657    0.91980    0.12150   1.00
C4       0.25186    0.47916    0.24759   1.00
C4       0.25113    0.52088    0.24767   1.00
C3       0.25499    0.45636    0.21314   1.00
C3       0.24989    0.54384    0.21319   1.00
C3       0.24869    0.45877    0.28377   1.00
C3       0.25178    0.54114    0.28406   1.00
C2       0.25116    0.39488    0.24972   1.00
C2       0.24884    0.60512    0.25028   1.00
C3       0.25444    0.41538    0.21412   1.00
C3       0.24914    0.58481    0.21443   1.00
C3       0.24892    0.41742    0.28421   1.00
C3       0.24932    0.58238    0.28470   1.00
H1       0.25791    0.46885    0.18633   1.00
H1       0.24924    0.53148    0.18617   1.00
C5       0.24548    0.47980    0.31930   1.00
C5       0.25452    0.52020    0.31962   1.00
H1       0.25652    0.40045    0.18824   1.00
H1       0.24859    0.59990    0.18855   1.00
H1       0.24772    0.40320    0.31047   1.00
H1       0.24730    0.59632    0.31100   1.00
O3       0.23594    0.46039    0.35319   1.00
O3       0.26294    0.53901    0.35429   1.00
Si1      0.19037    0.45753    0.36685   1.00
Si1      0.30848    0.54721    0.36553   1.00
C6       0.19745    0.42462    0.40584   1.00
C6       0.17648    0.50402    0.38395   1.00
C6       0.15952    0.43747    0.33078   1.00
C6       0.34489    0.53307    0.33183   1.00
C6       0.30992    0.59802    0.37189   1.00
C6       0.31707    0.52523    0.41120   1.00
C6       0.22339    0.38806    0.39666   1.00
H2       0.21447    0.44209    0.42636   1.00
C6       0.16194    0.40853    0.42991   1.00
H2       0.20446    0.51642    0.39275   1.00
C6       0.15860    0.53366    0.35418   1.00
C6       0.14976    0.50664    0.42090   1.00
H2       0.17588    0.41169    0.32155   1.00
C6       0.11858    0.42228    0.34434   1.00
C6       0.15053    0.46151    0.29277   1.00
C6       0.34648    0.48929    0.31905   1.00
C6       0.35130    0.55775    0.29389   1.00
H2       0.37165    0.53788    0.34842   1.00
H2       0.30628    0.60949    0.34241   1.00
C6       0.27582    0.61622    0.39628   1.00
C6       0.34858    0.61607    0.38807   1.00
H2       0.30553    0.54625    0.43218   1.00
C6       0.29448    0.48664    0.41959   1.00
C6       0.36039    0.51756    0.42358   1.00
H2       0.25194    0.39654    0.38530   1.00
H2       0.20944    0.36910    0.37514   1.00
H2       0.22877    0.37083    0.42296   1.00
H2       0.17053    0.40392    0.46029   1.00
H2       0.13708    0.42822    0.42994   1.00
H2       0.15174    0.38036    0.41903   1.00
H2       0.15908    0.56328    0.36607   1.00
H2       0.17502    0.53468    0.32702   1.00
H2       0.12829    0.52648    0.34755   1.00
H2       0.16265    0.49138    0.44569   1.00
H2       0.14578    0.53692    0.43021   1.00
H2       0.12086    0.49450    0.41507   1.00
H2       0.10260    0.44486    0.36016   1.00
H2       0.10049    0.41292    0.31973   1.00
H2       0.12130    0.39668    0.36283   1.00
H2       0.12560    0.48098    0.29651   1.00
H2       0.17477    0.47932    0.28306   1.00
H2       0.14344    0.44172    0.26874   1.00
H2       0.32594    0.48312    0.29559   1.00
H2       0.37555    0.48191    0.30815   1.00
H2       0.34031    0.46952    0.34312   1.00
H2       0.37808    0.54875    0.27902   1.00
H2       0.32759    0.55426    0.27308   1.00
H2       0.35460    0.58878    0.30015   1.00
H2       0.27551    0.64798    0.39302   1.00
H2       0.24744    0.60565    0.38630   1.00
H2       0.27852    0.60965    0.42731   1.00
H2       0.37404    0.60584    0.37192   1.00
H2       0.34801    0.64788    0.38534   1.00
H2       0.35265    0.60915    0.41891   1.00
H2       0.30242    0.46344    0.39932   1.00
H2       0.29965    0.47619    0.44926   1.00
H2       0.26333    0.49166    0.41686   1.00
H2       0.36211    0.50956    0.45443   1.00
H2       0.37330    0.49378    0.40671   1.00
H2       0.37850    0.54343    0.41980   1.00
C4       0.24759    0.75186    -0.02084   1.00
C4       0.24767    0.75113    0.02088   1.00
C3       0.21314    0.75499    -0.04364   1.00
C3       0.21319    0.74989    0.04384   1.00
C3       0.28377    0.74869    -0.04123   1.00
C3       0.28406    0.75178    0.04114   1.00
C2       0.24972    0.75116    -0.10512   1.00
C2       0.25028    0.74884    0.10512   1.00
C3       0.21412    0.75444    -0.08462   1.00
C3       0.21443    0.74914    0.08481   1.00
C3       0.28421    0.74892    -0.08258   1.00
C3       0.28470    0.74932    0.08238   1.00
H1       0.18633    0.75791    -0.03115   1.00
H1       0.18617    0.74924    0.03148   1.00
C5       0.31930    0.74548    -0.02020   1.00
C5       0.31962    0.75452    0.02020   1.00
H1       0.18824    0.75652    -0.09955   1.00
H1       0.18855    0.74859    0.09990   1.00
H1       0.31047    0.74772    -0.09680   1.00
H1       0.31100    0.74730    0.09632   1.00
O3       0.35319    0.73594    -0.03961   1.00
O3       0.35429    0.76294    0.03901   1.00
Si1      0.36685    0.69037    -0.04247   1.00
Si1      0.36553    0.80848    0.04721   1.00
C6       0.40584    0.69745    -0.07538   1.00
C6       0.38395    0.67648    0.00402   1.00
C6       0.33078    0.65952    -0.06253   1.00
C6       0.33183    0.84489    0.03307   1.00
C6       0.37189    0.80992    0.09802   1.00
C6       0.41120    0.81707    0.02523   1.00
C6       0.39666    0.72339    -0.11194   1.00
H2       0.42636    0.71447    -0.05791   1.00
C6       0.42991    0.66194    -0.09147   1.00
H2       0.39275    0.70446    0.01642   1.00
C6       0.35418    0.65860    0.03366   1.00
C6       0.42090    0.64976    0.00664   1.00
H2       0.32155    0.67588    -0.08831   1.00
C6       0.34434    0.61858    -0.07772   1.00
C6       0.29277    0.65053    -0.03849   1.00
C6       0.31905    0.84648    -0.01071   1.00
C6       0.29389    0.85130    0.05775   1.00
H2       0.34842    0.87165    0.03788   1.00
H2       0.34241    0.80628    0.10949   1.00
C6       0.39628    0.77582    0.11622   1.00
C6       0.38807    0.84858    0.11607   1.00
H2       0.43218    0.80553    0.04625   1.00
C6       0.41959    0.79448    -0.01336   1.00
C6       0.42358    0.86039    0.01756   1.00
H2       0.38530    0.75194    -0.10346   1.00
H2       0.37514    0.70944    -0.13090   1.00
H2       0.42296    0.72877    -0.12917   1.00
H2       0.46029    0.67053    -0.09608   1.00
H2       0.42994    0.63708    -0.07178   1.00
H2       0.41903    0.65174    -0.11964   1.00
H2       0.36607    0.65908    0.06328   1.00
H2       0.32702    0.67502    0.03468   1.00
H2       0.34755    0.62829    0.02648   1.00
H2       0.44569    0.66265    -0.00862   1.00
H2       0.43021    0.64578    0.03692   1.00
H2       0.41507    0.62086    -0.00550   1.00
H2       0.36016    0.60260    -0.05514   1.00
H2       0.31973    0.60049    -0.08708   1.00
H2       0.36283    0.62130    -0.10332   1.00
H2       0.29651    0.62560    -0.01902   1.00
H2       0.28306    0.67477    -0.02068   1.00
H2       0.26874    0.64344    -0.05828   1.00
H2       0.29559    0.82594    -0.01688   1.00
H2       0.30815    0.87555    -0.01809   1.00
H2       0.34312    0.84031    -0.03048   1.00
H2       0.27902    0.87808    0.04875   1.00
H2       0.27308    0.82759    0.05426   1.00
H2       0.30015    0.85460    0.08878   1.00
H2       0.39302    0.77551    0.14798   1.00
H2       0.38630    0.74744    0.10565   1.00
H2       0.42731    0.77852    0.10965   1.00
H2       0.37192    0.87404    0.10584   1.00
H2       0.38534    0.84801    0.14788   1.00
H2       0.41891    0.85265    0.10915   1.00
H2       0.39932    0.80242    -0.03656   1.00
H2       0.44926    0.79965    -0.02381   1.00
H2       0.41686    0.76333    -0.00834   1.00
H2       0.45443    0.86211    0.00956   1.00
H2       0.40671    0.87330    -0.00622   1.00
H2       0.41980    0.87850    0.04343   1.00
C4       0.74759    0.24814    0.52084   1.00
C4       0.74767    0.24887    0.47912   1.00
C3       0.71314    0.24501    0.54364   1.00
C3       0.71319    0.25011    0.45616   1.00
C3       0.78377    0.25131    0.54123   1.00
C3       0.78406    0.24822    0.45886   1.00
C2       0.74972    0.24884    0.60512   1.00
C2       0.75028    0.25116    0.39488   1.00
C3       0.71412    0.24556    0.58462   1.00
C3       0.71443    0.25086    0.41519   1.00
C3       0.78421    0.25108    0.58258   1.00
C3       0.78470    0.25068    0.41762   1.00
H1       0.68633    0.24209    0.53115   1.00
H1       0.68617    0.25076    0.46852   1.00
C5       0.81930    0.25452    0.52020   1.00
C5       0.81962    0.24548    0.47980   1.00
H1       0.68824    0.24348    0.59955   1.00
H1       0.68855    0.25141    0.40010   1.00
H1       0.81047    0.25228    0.59680   1.00
H1       0.81100    0.25270    0.40368   1.00
O3       0.85319    0.26406    0.53961   1.00
O3       0.85429    0.23706    0.46099   1.00
Si1      0.86685    0.30963    0.54247   1.00
Si1      0.86553    0.19152    0.45279   1.00
C6       0.90584    0.30255    0.57538   1.00
C6       0.88395    0.32352    0.49598   1.00
C6       0.83078    0.34048    0.56253   1.00
C6       0.83183    0.15511    0.46693   1.00
C6       0.87189    0.19008    0.40198   1.00
C6       0.91120    0.18293    0.47477   1.00
C6       0.89666    0.27661    0.61194   1.00
H2       0.92636    0.28553    0.55791   1.00
C6       0.92991    0.33806    0.59147   1.00
H2       0.89275    0.29554    0.48358   1.00
C6       0.85418    0.34140    0.46634   1.00
C6       0.92090    0.35024    0.49336   1.00
H2       0.82155    0.32412    0.58831   1.00
C6       0.84434    0.38142    0.57772   1.00
C6       0.79277    0.34947    0.53849   1.00
C6       0.81905    0.15352    0.51071   1.00
C6       0.79389    0.14870    0.44225   1.00
H2       0.84842    0.12835    0.46212   1.00
H2       0.84241    0.19372    0.39051   1.00
C6       0.89628    0.22418    0.38378   1.00
C6       0.88807    0.15142    0.38393   1.00
H2       0.93218    0.19447    0.45375   1.00
C6       0.91959    0.20552    0.51336   1.00
C6       0.92358    0.13961    0.48244   1.00
H2       0.88530    0.24806    0.60346   1.00
H2       0.87514    0.29056    0.63090   1.00
H2       0.92296    0.27123    0.62917   1.00
H2       0.96029    0.32947    0.59608   1.00
H2       0.92994    0.36292    0.57178   1.00
H2       0.91903    0.34826    0.61964   1.00
H2       0.86607    0.34092    0.43672   1.00
H2       0.82702    0.32498    0.46532   1.00
H2       0.84755    0.37171    0.47352   1.00
H2       0.94569    0.33735    0.50862   1.00
H2       0.93021    0.35422    0.46308   1.00
H2       0.91507    0.37914    0.50550   1.00
H2       0.86016    0.39740    0.55514   1.00
H2       0.81973    0.39951    0.58708   1.00
H2       0.86283    0.37870    0.60332   1.00
H2       0.79651    0.37440    0.51902   1.00
H2       0.78306    0.32523    0.52068   1.00
H2       0.76874    0.35656    0.55828   1.00
H2       0.79559    0.17406    0.51688   1.00
H2       0.80815    0.12445    0.51809   1.00
H2       0.84312    0.15969    0.53048   1.00
H2       0.77902    0.12192    0.45125   1.00
H2       0.77308    0.17241    0.44574   1.00
H2       0.80015    0.14540    0.41122   1.00
H2       0.89302    0.22449    0.35202   1.00
H2       0.88630    0.25256    0.39435   1.00
H2       0.92731    0.22148    0.39035   1.00
H2       0.87192    0.12596    0.39416   1.00
H2       0.88534    0.15199    0.35212   1.00
H2       0.91891    0.14735    0.39085   1.00
H2       0.89932    0.19758    0.53656   1.00
H2       0.94926    0.20035    0.52381   1.00
H2       0.91686    0.23667    0.50834   1.00
H2       0.95443    0.13789    0.49044   1.00
H2       0.90671    0.12670    0.50622   1.00
H2       0.91980    0.12150    0.45657   1.00
C4       0.74814    0.52084    0.24759   1.00
C4       0.74887    0.47912    0.24767   1.00
C3       0.74501    0.54364    0.21314   1.00
C3       0.75011    0.45616    0.21319   1.00
C3       0.75131    0.54123    0.28377   1.00
C3       0.74822    0.45886    0.28406   1.00
C2       0.74884    0.60512    0.24972   1.00
C2       0.75116    0.39488    0.25028   1.00
C3       0.74556    0.58462    0.21412   1.00
C3       0.75086    0.41519    0.21443   1.00
C3       0.75108    0.58258    0.28421   1.00
C3       0.75068    0.41762    0.28470   1.00
H1       0.74209    0.53115    0.18633   1.00
H1       0.75076    0.46852    0.18617   1.00
C5       0.75452    0.52020    0.31930   1.00
C5       0.74548    0.47980    0.31962   1.00
H1       0.74348    0.59955    0.18824   1.00
H1       0.75141    0.40010    0.18855   1.00
H1       0.75228    0.59680    0.31047   1.00
H1       0.75270    0.40368    0.31100   1.00
O3       0.76406    0.53961    0.35319   1.00
O3       0.73706    0.46099    0.35429   1.00
Si1      0.80963    0.54247    0.36685   1.00
Si1      0.69152    0.45279    0.36553   1.00
C6       0.80255    0.57538    0.40584   1.00
C6       0.82352    0.49598    0.38395   1.00
C6       0.84048    0.56253    0.33078   1.00
C6       0.65511    0.46693    0.33183   1.00
C6       0.69008    0.40198    0.37189   1.00
C6       0.68293    0.47477    0.41120   1.00
C6       0.77661    0.61194    0.39666   1.00
H2       0.78553    0.55791    0.42636   1.00
C6       0.83806    0.59147    0.42991   1.00
H2       0.79554    0.48358    0.39275   1.00
C6       0.84140    0.46634    0.35418   1.00
C6       0.85024    0.49336    0.42090   1.00
H2       0.82412    0.58831    0.32155   1.00
C6       0.88142    0.57772    0.34434   1.00
C6       0.84947    0.53849    0.29277   1.00
C6       0.65352    0.51071    0.31905   1.00
C6       0.64870    0.44225    0.29389   1.00
H2       0.62835    0.46212    0.34842   1.00
H2       0.69372    0.39051    0.34241   1.00
C6       0.72418    0.38378    0.39628   1.00
C6       0.65142    0.38393    0.38807   1.00
H2       0.69447    0.45375    0.43218   1.00
C6       0.70552    0.51336    0.41959   1.00
C6       0.63961    0.48244    0.42358   1.00
H2       0.74806    0.60346    0.38530   1.00
H2       0.79056    0.63090    0.37514   1.00
H2       0.77123    0.62917    0.42296   1.00
H2       0.82947    0.59608    0.46029   1.00
H2       0.86292    0.57178    0.42994   1.00
H2       0.84826    0.61964    0.41903   1.00
H2       0.84092    0.43672    0.36607   1.00
H2       0.82498    0.46532    0.32702   1.00
H2       0.87171    0.47352    0.34755   1.00
H2       0.83735    0.50862    0.44569   1.00
H2       0.85422    0.46308    0.43021   1.00
H2       0.87914    0.50550    0.41507   1.00
H2       0.89740    0.55514    0.36016   1.00
H2       0.89951    0.58708    0.31973   1.00
H2       0.87870    0.60332    0.36283   1.00
H2       0.87440    0.51902    0.29651   1.00
H2       0.82523    0.52068    0.28306   1.00
H2       0.85656    0.55828    0.26874   1.00
H2       0.67406    0.51688    0.29559   1.00
H2       0.62445    0.51809    0.30815   1.00
H2       0.65969    0.53048    0.34312   1.00
H2       0.62192    0.45125    0.27902   1.00
H2       0.67241    0.44574    0.27308   1.00
H2       0.64540    0.41122    0.30015   1.00
H2       0.72449    0.35202    0.39302   1.00
H2       0.75256    0.39435    0.38630   1.00
H2       0.72148    0.39035    0.42731   1.00
H2       0.62596    0.39416    0.37192   1.00
H2       0.65199    0.35212    0.38534   1.00
H2       0.64735    0.39085    0.41891   1.00
H2       0.69758    0.53656    0.39932   1.00
H2       0.70035    0.52381    0.44926   1.00
H2       0.73667    0.50834    0.41686   1.00
H2       0.63789    0.49044    0.45443   1.00
H2       0.62670    0.50622    0.40671   1.00
H2       0.62150    0.45657    0.41980   1.00
C4       0.47916    0.24759    0.25186   1.00
C4       0.52088    0.24767    0.25113   1.00
C3       0.45636    0.21314    0.25499   1.00
C3       0.54384    0.21319    0.24989   1.00
C3       0.45877    0.28377    0.24869   1.00
C3       0.54114    0.28406    0.25178   1.00
C2       0.39488    0.24972    0.25116   1.00
C2       0.60512    0.25028    0.24884   1.00
C3       0.41538    0.21412    0.25444   1.00
C3       0.58481    0.21443    0.24914   1.00
C3       0.41742    0.28421    0.24892   1.00
C3       0.58238    0.28470    0.24932   1.00
H1       0.46885    0.18633    0.25791   1.00
H1       0.53148    0.18617    0.24924   1.00
C5       0.47980    0.31930    0.24548   1.00
C5       0.52020    0.31962    0.25452   1.00
H1       0.40045    0.18824    0.25652   1.00
H1       0.59990    0.18855    0.24859   1.00
H1       0.40320    0.31047    0.24772   1.00
H1       0.59632    0.31100    0.24730   1.00
O3       0.46039    0.35319    0.23594   1.00
O3       0.53901    0.35429    0.26294   1.00
Si1      0.45753    0.36685    0.19037   1.00
Si1      0.54721    0.36553    0.30848   1.00
C6       0.42462    0.40584    0.19745   1.00
C6       0.50402    0.38395    0.17648   1.00
C6       0.43747    0.33078    0.15952   1.00
C6       0.53307    0.33183    0.34489   1.00
C6       0.59802    0.37189    0.30992   1.00
C6       0.52523    0.41120    0.31707   1.00
C6       0.38806    0.39666    0.22339   1.00
H2       0.44209    0.42636    0.21447   1.00
C6       0.40853    0.42991    0.16194   1.00
H2       0.51642    0.39275    0.20446   1.00
C6       0.53366    0.35418    0.15860   1.00
C6       0.50664    0.42090    0.14976   1.00
H2       0.41169    0.32155    0.17588   1.00
C6       0.42228    0.34434    0.11858   1.00
C6       0.46151    0.29277    0.15053   1.00
C6       0.48929    0.31905    0.34648   1.00
C6       0.55775    0.29389    0.35130   1.00
H2       0.53788    0.34842    0.37165   1.00
H2       0.60949    0.34241    0.30628   1.00
C6       0.61622    0.39628    0.27582   1.00
C6       0.61607    0.38807    0.34858   1.00
H2       0.54625    0.43218    0.30553   1.00
C6       0.48664    0.41959    0.29448   1.00
C6       0.51756    0.42358    0.36039   1.00
H2       0.39654    0.38530    0.25194   1.00
H2       0.36910    0.37514    0.20944   1.00
H2       0.37083    0.42296    0.22877   1.00
H2       0.40392    0.46029    0.17053   1.00
H2       0.42822    0.42994    0.13708   1.00
H2       0.38036    0.41903    0.15174   1.00
H2       0.56328    0.36607    0.15908   1.00
H2       0.53468    0.32702    0.17502   1.00
H2       0.52648    0.34755    0.12829   1.00
H2       0.49138    0.44569    0.16265   1.00
H2       0.53692    0.43021    0.14578   1.00
H2       0.49450    0.41507    0.12086   1.00
H2       0.44486    0.36016    0.10260   1.00
H2       0.41292    0.31973    0.10049   1.00
H2       0.39668    0.36283    0.12130   1.00
H2       0.48098    0.29651    0.12560   1.00
H2       0.47932    0.28306    0.17477   1.00
H2       0.44172    0.26874    0.14344   1.00
H2       0.48312    0.29559    0.32594   1.00
H2       0.48191    0.30815    0.37555   1.00
H2       0.46952    0.34312    0.34031   1.00
H2       0.54875    0.27902    0.37808   1.00
H2       0.55426    0.27308    0.32759   1.00
H2       0.58878    0.30015    0.35460   1.00
H2       0.64798    0.39302    0.27551   1.00
H2       0.60565    0.38630    0.24744   1.00
H2       0.60965    0.42731    0.27852   1.00
H2       0.60584    0.37192    0.37404   1.00
H2       0.64788    0.38534    0.34801   1.00
H2       0.60915    0.41891    0.35265   1.00
H2       0.46344    0.39932    0.30242   1.00
H2       0.47619    0.44926    0.29965   1.00
H2       0.49166    0.41686    0.26333   1.00
H2       0.50956    0.45443    0.36211   1.00
H2       0.49378    0.40671    0.37330   1.00
H2       0.54343    0.41980    0.37850   1.00
C4       1.02084    0.24759    0.24814   1.00
C4       0.97912    0.24767    0.24887   1.00
C3       1.04364    0.21314    0.24501   1.00
C3       0.95616    0.21319    0.25011   1.00
C3       1.04123    0.28377    0.25131   1.00
C3       0.95886    0.28406    0.24822   1.00
C2       1.10512    0.24972    0.24884   1.00
C2       0.89488    0.25028    0.25116   1.00
C3       1.08462    0.21412    0.24556   1.00
C3       0.91519    0.21443    0.25086   1.00
C3       1.08258    0.28421    0.25108   1.00
C3       0.91762    0.28470    0.25068   1.00
H1       1.03115    0.18633    0.24209   1.00
H1       0.96852    0.18617    0.25076   1.00
C5       1.02020    0.31930    0.25452   1.00
C5       0.97980    0.31962    0.24548   1.00
H1       1.09955    0.18824    0.24348   1.00
H1       0.90010    0.18855    0.25141   1.00
H1       1.09680    0.31047    0.25228   1.00
H1       0.90368    0.31100    0.25270   1.00
O3       1.03961    0.35319    0.26406   1.00
O3       0.96099    0.35429    0.23706   1.00
Si1      1.04247    0.36685    0.30963   1.00
Si1      0.95279    0.36553    0.19152   1.00
C6       1.07538    0.40584    0.30255   1.00
C6       0.99598    0.38395    0.32352   1.00
C6       1.06253    0.33078    0.34048   1.00
C6       0.96693    0.33183    0.15511   1.00
C6       0.90198    0.37189    0.19008   1.00
C6       0.97477    0.41120    0.18293   1.00
C6       1.11194    0.39666    0.27661   1.00
H2       1.05791    0.42636    0.28553   1.00
C6       1.09147    0.42991    0.33806   1.00
H2       0.98358    0.39275    0.29554   1.00
C6       0.96634    0.35418    0.34140   1.00
C6       0.99336    0.42090    0.35024   1.00
H2       1.08831    0.32155    0.32412   1.00
C6       1.07772    0.34434    0.38142   1.00
C6       1.03849    0.29277    0.34947   1.00
C6       1.01071    0.31905    0.15352   1.00
C6       0.94225    0.29389    0.14870   1.00
H2       0.96212    0.34842    0.12835   1.00
H2       0.89051    0.34241    0.19372   1.00
C6       0.88378    0.39628    0.22418   1.00
C6       0.88393    0.38807    0.15142   1.00
H2       0.95375    0.43218    0.19447   1.00
C6       1.01336    0.41959    0.20552   1.00
C6       0.98244    0.42358    0.13961   1.00
H2       1.10346    0.38530    0.24806   1.00
H2       1.13090    0.37514    0.29056   1.00
H2       1.12917    0.42296    0.27123   1.00
H2       1.09608    0.46029    0.32947   1.00
H2       1.07178    0.42994    0.36292   1.00
H2       1.11964    0.41903    0.34826   1.00
H2       0.93672    0.36607    0.34092   1.00
H2       0.96532    0.32702    0.32498   1.00
H2       0.97352    0.34755    0.37171   1.00
H2       1.00862    0.44569    0.33735   1.00
H2       0.96308    0.43021    0.35422   1.00
H2       1.00550    0.41507    0.37914   1.00
H2       1.05514    0.36016    0.39740   1.00
H2       1.08708    0.31973    0.39951   1.00
H2       1.10332    0.36283    0.37870   1.00
H2       1.01902    0.29651    0.37440   1.00
H2       1.02068    0.28306    0.32523   1.00
H2       1.05828    0.26874    0.35656   1.00
H2       1.01688    0.29559    0.17406   1.00
H2       1.01809    0.30815    0.12445   1.00
H2       1.03048    0.34312    0.15969   1.00
H2       0.95125    0.27902    0.12192   1.00
H2       0.94574    0.27308    0.17241   1.00
H2       0.91122    0.30015    0.14540   1.00
H2       0.85202    0.39302    0.22449   1.00
H2       0.89435    0.38630    0.25256   1.00
H2       0.89035    0.42731    0.22148   1.00
H2       0.89416    0.37192    0.12596   1.00
H2       0.85212    0.38534    0.15199   1.00
H2       0.89085    0.41891    0.14735   1.00
H2       1.03656    0.39932    0.19758   1.00
H2       1.02381    0.44926    0.20035   1.00
H2       1.00834    0.41686    0.23667   1.00
H2       0.99044    0.45443    0.13789   1.00
H2       1.00622    0.40671    0.12670   1.00
H2       0.95657    0.41980    0.12150   1.00
C4       0.75186    -0.02084   0.24759   1.00
C4       0.75113    0.02088    0.24767   1.00
C3       0.75499    -0.04364   0.21314   1.00
C3       0.74989    0.04384    0.21319   1.00
C3       0.74869    -0.04123   0.28377   1.00
C3       0.75178    0.04114    0.28406   1.00
C2       0.75116    -0.10512   0.24972   1.00
C2       0.74884    0.10512    0.25028   1.00
C3       0.75444    -0.08462   0.21412   1.00
C3       0.74914    0.08481    0.21443   1.00
C3       0.74892    -0.08258   0.28421   1.00
C3       0.74932    0.08238    0.28470   1.00
H1       0.75791    -0.03115   0.18633   1.00
H1       0.74924    0.03148    0.18617   1.00
C5       0.74548    -0.02020   0.31930   1.00
C5       0.75452    0.02020    0.31962   1.00
H1       0.75652    -0.09955   0.18824   1.00
H1       0.74859    0.09990    0.18855   1.00
H1       0.74772    -0.09680   0.31047   1.00
H1       0.74730    0.09632    0.31100   1.00
O3       0.73594    -0.03961   0.35319   1.00
O3       0.76294    0.03901    0.35429   1.00
Si1      0.69037    -0.04247   0.36685   1.00
Si1      0.80848    0.04721    0.36553   1.00
C6       0.69745    -0.07538   0.40584   1.00
C6       0.67648    0.00402    0.38395   1.00
C6       0.65952    -0.06253   0.33078   1.00
C6       0.84489    0.03307    0.33183   1.00
C6       0.80992    0.09802    0.37189   1.00
C6       0.81707    0.02523    0.41120   1.00
C6       0.72339    -0.11194   0.39666   1.00
H2       0.71447    -0.05791   0.42636   1.00
C6       0.66194    -0.09147   0.42991   1.00
H2       0.70446    0.01642    0.39275   1.00
C6       0.65860    0.03366    0.35418   1.00
C6       0.64976    0.00664    0.42090   1.00
H2       0.67588    -0.08831   0.32155   1.00
C6       0.61858    -0.07772   0.34434   1.00
C6       0.65053    -0.03849   0.29277   1.00
C6       0.84648    -0.01071   0.31905   1.00
C6       0.85130    0.05775    0.29389   1.00
H2       0.87165    0.03788    0.34842   1.00
H2       0.80628    0.10949    0.34241   1.00
C6       0.77582    0.11622    0.39628   1.00
C6       0.84858    0.11607    0.38807   1.00
H2       0.80553    0.04625    0.43218   1.00
C6       0.79448    -0.01336   0.41959   1.00
C6       0.86039    0.01756    0.42358   1.00
H2       0.75194    -0.10346   0.38530   1.00
H2       0.70944    -0.13090   0.37514   1.00
H2       0.72877    -0.12917   0.42296   1.00
H2       0.67053    -0.09608   0.46029   1.00
H2       0.63708    -0.07178   0.42994   1.00
H2       0.65174    -0.11964   0.41903   1.00
H2       0.65908    0.06328    0.36607   1.00
H2       0.67502    0.03468    0.32702   1.00
H2       0.62829    0.02648    0.34755   1.00
H2       0.66265    -0.00862   0.44569   1.00
H2       0.64578    0.03692    0.43021   1.00
H2       0.62086    -0.00550   0.41507   1.00
H2       0.60260    -0.05514   0.36016   1.00
H2       0.60049    -0.08708   0.31973   1.00
H2       0.62130    -0.10332   0.36283   1.00
H2       0.62560    -0.01902   0.29651   1.00
H2       0.67477    -0.02068   0.28306   1.00
H2       0.64344    -0.05828   0.26874   1.00
H2       0.82594    -0.01688   0.29559   1.00
H2       0.87555    -0.01809   0.30815   1.00
H2       0.84031    -0.03048   0.34312   1.00
H2       0.87808    0.04875    0.27902   1.00
H2       0.82759    0.05426    0.27308   1.00
H2       0.85460    0.08878    0.30015   1.00
H2       0.77551    0.14798    0.39302   1.00
H2       0.74744    0.10565    0.38630   1.00
H2       0.77852    0.10965    0.42731   1.00
H2       0.87404    0.10584    0.37192   1.00
H2       0.84801    0.14788    0.38534   1.00
H2       0.85265    0.10915    0.41891   1.00
H2       0.80242    -0.03656   0.39932   1.00
H2       0.79965    -0.02381   0.44926   1.00
H2       0.76333    -0.00834   0.41686   1.00
H2       0.86211    0.00956    0.45443   1.00
H2       0.87330    -0.00622   0.40671   1.00
H2       0.87850    0.04343    0.41980   1.00
C4       0.74759    0.25186    -0.02084   1.00
C4       0.74767    0.25113    0.02088   1.00
C3       0.71314    0.25499    -0.04364   1.00
C3       0.71319    0.24989    0.04384   1.00
C3       0.78377    0.24869    -0.04123   1.00
C3       0.78406    0.25178    0.04114   1.00
C2       0.74972    0.25116    -0.10512   1.00
C2       0.75028    0.24884    0.10512   1.00
C3       0.71412    0.25444    -0.08462   1.00
C3       0.71443    0.24914    0.08481   1.00
C3       0.78421    0.24892    -0.08258   1.00
C3       0.78470    0.24932    0.08238   1.00
H1       0.68633    0.25791    -0.03115   1.00
H1       0.68617    0.24924    0.03148   1.00
C5       0.81930    0.24548    -0.02020   1.00
C5       0.81962    0.25452    0.02020   1.00
H1       0.68824    0.25652    -0.09955   1.00
H1       0.68855    0.24859    0.09990   1.00
H1       0.81047    0.24772    -0.09680   1.00
H1       0.81100    0.24730    0.09632   1.00
O3       0.85319    0.23594    -0.03961   1.00
O3       0.85429    0.26294    0.03901   1.00
Si1      0.86685    0.19037    -0.04247   1.00
Si1      0.86553    0.30848    0.04721   1.00
C6       0.90584    0.19745    -0.07538   1.00
C6       0.88395    0.17648    0.00402   1.00
C6       0.83078    0.15952    -0.06253   1.00
C6       0.83183    0.34489    0.03307   1.00
C6       0.87189    0.30992    0.09802   1.00
C6       0.91120    0.31707    0.02523   1.00
C6       0.89666    0.22339    -0.11194   1.00
H2       0.92636    0.21447    -0.05791   1.00
C6       0.92991    0.16194    -0.09147   1.00
H2       0.89275    0.20446    0.01642   1.00
C6       0.85418    0.15860    0.03366   1.00
C6       0.92090    0.14976    0.00664   1.00
H2       0.82155    0.17588    -0.08831   1.00
C6       0.84434    0.11858    -0.07772   1.00
C6       0.79277    0.15053    -0.03849   1.00
C6       0.81905    0.34648    -0.01071   1.00
C6       0.79389    0.35130    0.05775   1.00
H2       0.84842    0.37165    0.03788   1.00
H2       0.84241    0.30628    0.10949   1.00
C6       0.89628    0.27582    0.11622   1.00
C6       0.88807    0.34858    0.11607   1.00
H2       0.93218    0.30553    0.04625   1.00
C6       0.91959    0.29448    -0.01336   1.00
C6       0.92358    0.36039    0.01756   1.00
H2       0.88530    0.25194    -0.10346   1.00
H2       0.87514    0.20944    -0.13090   1.00
H2       0.92296    0.22877    -0.12917   1.00
H2       0.96029    0.17053    -0.09608   1.00
H2       0.92994    0.13708    -0.07178   1.00
H2       0.91903    0.15174    -0.11964   1.00
H2       0.86607    0.15908    0.06328   1.00
H2       0.82702    0.17502    0.03468   1.00
H2       0.84755    0.12829    0.02648   1.00
H2       0.94569    0.16265    -0.00862   1.00
H2       0.93021    0.14578    0.03692   1.00
H2       0.91507    0.12086    -0.00550   1.00
H2       0.86016    0.10260    -0.05514   1.00
H2       0.81973    0.10049    -0.08708   1.00
H2       0.86283    0.12130    -0.10332   1.00
H2       0.79651    0.12560    -0.01902   1.00
H2       0.78306    0.17477    -0.02068   1.00
H2       0.76874    0.14344    -0.05828   1.00
H2       0.79559    0.32594    -0.01688   1.00
H2       0.80815    0.37555    -0.01809   1.00
H2       0.84312    0.34031    -0.03048   1.00
H2       0.77902    0.37808    0.04875   1.00
H2       0.77308    0.32759    0.05426   1.00
H2       0.80015    0.35460    0.08878   1.00
H2       0.89302    0.27551    0.14798   1.00
H2       0.88630    0.24744    0.10565   1.00
H2       0.92731    0.27852    0.10965   1.00
H2       0.87192    0.37404    0.10584   1.00
H2       0.88534    0.34801    0.14788   1.00
H2       0.91891    0.35265    0.10915   1.00
H2       0.89932    0.30242    -0.03656   1.00
H2       0.94926    0.29965    -0.02381   1.00
H2       0.91686    0.26333    -0.00834   1.00
H2       0.95443    0.36211    0.00956   1.00
H2       0.90671    0.37330    -0.00622   1.00
H2       0.91980    0.37850    0.04343   1.00
C4       0.91259    0.91314    1.18584   1.00
C4       0.91267    0.91387    1.14412   1.00
C3       0.87814    0.91001    1.20864   1.00
C3       0.87819    0.91511    1.12116   1.00
C3       0.94877    0.91631    1.20623   1.00
C3       0.94906    0.91322    1.12386   1.00
C2       0.91472    0.91384    1.27012   1.00
C2       0.91528    0.91616    1.05988   1.00
C3       0.87912    0.91056    1.24962   1.00
C3       0.87943    0.91586    1.08019   1.00
C3       0.94921    0.91608    1.24758   1.00
C3       0.94970    0.91568    1.08262   1.00
H1       0.85133    0.90709    1.19615   1.00
H1       0.85117    0.91576    1.13352   1.00
C5       0.98430    0.91952    1.18520   1.00
C5       0.98462    0.91048    1.14480   1.00
H1       0.85324    0.90848    1.26455   1.00
H1       0.85355    0.91641    1.06510   1.00
H1       0.97547    0.91728    1.26180   1.00
H1       0.97600    0.91770    1.06868   1.00
O3       1.01819    0.92906    1.20461   1.00
O3       1.01929    0.90206    1.12599   1.00
Si1      1.03185    0.97463    1.20747   1.00
Si1      1.03053    0.85652    1.11779   1.00
C6       1.07084    0.96755    1.24038   1.00
C6       1.04895    0.98852    1.16098   1.00
C6       0.99578    1.00548    1.22753   1.00
C6       0.99683    0.82011    1.13193   1.00
C6       1.03689    0.85508    1.06698   1.00
C6       1.07620    0.84793    1.13977   1.00
C6       1.06166    0.94161    1.27694   1.00
H2       1.09136    0.95053    1.22291   1.00
C6       1.09491    1.00306    1.25647   1.00
H2       1.05775    0.96054    1.14858   1.00
C6       1.01918    1.00640    1.13134   1.00
C6       1.08590    1.01524    1.15836   1.00
H2       0.98655    0.98912    1.25331   1.00
C6       1.00934    1.04642    1.24272   1.00
C6       0.95777    1.01447    1.20349   1.00
C6       0.98405    0.81852    1.17571   1.00
C6       0.95889    0.81370    1.10725   1.00
H2       1.01342    0.79335    1.12712   1.00
H2       1.00741    0.85872    1.05551   1.00
C6       1.06128    0.88918    1.04878   1.00
C6       1.05307    0.81642    1.04893   1.00
H2       1.09718    0.85947    1.11875   1.00
C6       1.08459    0.87052    1.17836   1.00
C6       1.08858    0.80461    1.14744   1.00
H2       1.05030    0.91306    1.26846   1.00
H2       1.04014    0.95556    1.29590   1.00
H2       1.08796    0.93623    1.29417   1.00
H2       1.12529    0.99447    1.26108   1.00
H2       1.09494    1.02792    1.23678   1.00
H2       1.08403    1.01326    1.28464   1.00
H2       1.03107    1.00592    1.10172   1.00
H2       0.99202    0.98998    1.13032   1.00
H2       1.01255    1.03671    1.13852   1.00
H2       1.11069    1.00235    1.17362   1.00
H2       1.09521    1.01922    1.12808   1.00
H2       1.08007    1.04414    1.17050   1.00
H2       1.02516    1.06240    1.22014   1.00
H2       0.98473    1.06451    1.25208   1.00
H2       1.02783    1.04370    1.26832   1.00
H2       0.96151    1.03940    1.18402   1.00
H2       0.94806    0.99023    1.18568   1.00
H2       0.93374    1.02156    1.22328   1.00
H2       0.96059    0.83906    1.18188   1.00
H2       0.97315    0.78945    1.18309   1.00
H2       1.00812    0.82469    1.19548   1.00
H2       0.94402    0.78692    1.11625   1.00
H2       0.93808    0.83741    1.11074   1.00
H2       0.96515    0.81040    1.07622   1.00
H2       1.05802    0.88949    1.01702   1.00
H2       1.05130    0.91756    1.05935   1.00
H2       1.09231    0.88648    1.05535   1.00
H2       1.03692    0.79096    1.05916   1.00
H2       1.05034    0.81699    1.01712   1.00
H2       1.08391    0.81235    1.05585   1.00
H2       1.06432    0.86258    1.20156   1.00
H2       1.11426    0.86535    1.18881   1.00
H2       1.08186    0.90167    1.17334   1.00
H2       1.11943    0.80289    1.15544   1.00
H2       1.07171    0.79170    1.17122   1.00
H2       1.08480    0.78650    1.12157   1.00
C4       0.91314    1.18584    0.91259   1.00
C4       0.91387    1.14412    0.91267   1.00
C3       0.91001    1.20864    0.87814   1.00
C3       0.91511    1.12116    0.87819   1.00
C3       0.91631    1.20623    0.94877   1.00
C3       0.91322    1.12386    0.94906   1.00
C2       0.91384    1.27012    0.91472   1.00
C2       0.91616    1.05988    0.91528   1.00
C3       0.91056    1.24962    0.87912   1.00
C3       0.91586    1.08019    0.87943   1.00
C3       0.91608    1.24758    0.94921   1.00
C3       0.91568    1.08262    0.94970   1.00
H1       0.90709    1.19615    0.85133   1.00
H1       0.91576    1.13352    0.85117   1.00
C5       0.91952    1.18520    0.98430   1.00
C5       0.91048    1.14480    0.98462   1.00
H1       0.90848    1.26455    0.85324   1.00
H1       0.91641    1.06510    0.85355   1.00
H1       0.91728    1.26180    0.97547   1.00
H1       0.91770    1.06868    0.97600   1.00
O3       0.92906    1.20461    1.01819   1.00
O3       0.90206    1.12599    1.01929   1.00
Si1      0.97463    1.20747    1.03185   1.00
Si1      0.85652    1.11779    1.03053   1.00
C6       0.96755    1.24038    1.07084   1.00
C6       0.98852    1.16098    1.04895   1.00
C6       1.00548    1.22753    0.99578   1.00
C6       0.82011    1.13193    0.99683   1.00
C6       0.85508    1.06698    1.03689   1.00
C6       0.84793    1.13977    1.07620   1.00
C6       0.94161    1.27694    1.06166   1.00
H2       0.95053    1.22291    1.09136   1.00
C6       1.00306    1.25647    1.09491   1.00
H2       0.96054    1.14858    1.05775   1.00
C6       1.00640    1.13134    1.01918   1.00
C6       1.01524    1.15836    1.08590   1.00
H2       0.98912    1.25331    0.98655   1.00
C6       1.04642    1.24272    1.00934   1.00
C6       1.01447    1.20349    0.95777   1.00
C6       0.81852    1.17571    0.98405   1.00
C6       0.81370    1.10725    0.95889   1.00
H2       0.79335    1.12712    1.01342   1.00
H2       0.85872    1.05551    1.00741   1.00
C6       0.88918    1.04878    1.06128   1.00
C6       0.81642    1.04893    1.05307   1.00
H2       0.85947    1.11875    1.09718   1.00
C6       0.87052    1.17836    1.08459   1.00
C6       0.80461    1.14744    1.08858   1.00
H2       0.91306    1.26846    1.05030   1.00
H2       0.95556    1.29590    1.04014   1.00
H2       0.93623    1.29417    1.08796   1.00
H2       0.99447    1.26108    1.12529   1.00
H2       1.02792    1.23678    1.09494   1.00
H2       1.01326    1.28464    1.08403   1.00
H2       1.00592    1.10172    1.03107   1.00
H2       0.98998    1.13032    0.99202   1.00
H2       1.03671    1.13852    1.01255   1.00
H2       1.00235    1.17362    1.11069   1.00
H2       1.01922    1.12808    1.09521   1.00
H2       1.04414    1.17050    1.08007   1.00
H2       1.06240    1.22014    1.02516   1.00
H2       1.06451    1.25208    0.98473   1.00
H2       1.04370    1.26832    1.02783   1.00
H2       1.03940    1.18402    0.96151   1.00
H2       0.99023    1.18568    0.94806   1.00
H2       1.02156    1.22328    0.93374   1.00
H2       0.83906    1.18188    0.96059   1.00
H2       0.78945    1.18309    0.97315   1.00
H2       0.82469    1.19548    1.00812   1.00
H2       0.78692    1.11625    0.94402   1.00
H2       0.83741    1.11074    0.93808   1.00
H2       0.81040    1.07622    0.96515   1.00
H2       0.88949    1.01702    1.05802   1.00
H2       0.91756    1.05935    1.05130   1.00
H2       0.88648    1.05535    1.09231   1.00
H2       0.79096    1.05916    1.03692   1.00
H2       0.81699    1.01712    1.05034   1.00
H2       0.81235    1.05585    1.08391   1.00
H2       0.86258    1.20156    1.06432   1.00
H2       0.86535    1.18881    1.11426   1.00
H2       0.90167    1.17334    1.08186   1.00
H2       0.80289    1.15544    1.11943   1.00
H2       0.79170    1.17122    1.07171   1.00
H2       0.78650    1.12157    1.08480   1.00
C4       0.64416    0.91259    0.91686   1.00
C4       0.68588    0.91267    0.91613   1.00
C3       0.62136    0.87814    0.91999   1.00
C3       0.70884    0.87819    0.91489   1.00
C3       0.62377    0.94877    0.91369   1.00
C3       0.70614    0.94906    0.91678   1.00
C2       0.55988    0.91472    0.91616   1.00
C2       0.77012    0.91528    0.91384   1.00
C3       0.58038    0.87912    0.91944   1.00
C3       0.74981    0.87943    0.91414   1.00
C3       0.58242    0.94921    0.91392   1.00
C3       0.74738    0.94970    0.91432   1.00
H1       0.63385    0.85133    0.92291   1.00
H1       0.69648    0.85117    0.91424   1.00
C5       0.64480    0.98430    0.91048   1.00
C5       0.68520    0.98462    0.91952   1.00
H1       0.56545    0.85324    0.92152   1.00
H1       0.76490    0.85355    0.91359   1.00
H1       0.56820    0.97547    0.91272   1.00
H1       0.76132    0.97600    0.91230   1.00
O3       0.62539    1.01819    0.90094   1.00
O3       0.70401    1.01929    0.92794   1.00
Si1      0.62253    1.03185    0.85537   1.00
Si1      0.71221    1.03053    0.97348   1.00
C6       0.58962    1.07084    0.86245   1.00
C6       0.66902    1.04895    0.84148   1.00
C6       0.60247    0.99578    0.82452   1.00
C6       0.69807    0.99683    1.00989   1.00
C6       0.76302    1.03689    0.97492   1.00
C6       0.69023    1.07620    0.98207   1.00
C6       0.55306    1.06166    0.88839   1.00
H2       0.60709    1.09136    0.87947   1.00
C6       0.57353    1.09491    0.82694   1.00
H2       0.68142    1.05775    0.86946   1.00
C6       0.69866    1.01918    0.82360   1.00
C6       0.67164    1.08590    0.81476   1.00
H2       0.57669    0.98655    0.84088   1.00
C6       0.58728    1.00934    0.78358   1.00
C6       0.62651    0.95777    0.81553   1.00
C6       0.65429    0.98405    1.01148   1.00
C6       0.72275    0.95889    1.01630   1.00
H2       0.70288    1.01342    1.03665   1.00
H2       0.77449    1.00741    0.97128   1.00
C6       0.78122    1.06128    0.94082   1.00
C6       0.78107    1.05307    1.01358   1.00
H2       0.71125    1.09718    0.97053   1.00
C6       0.65164    1.08459    0.95948   1.00
C6       0.68256    1.08858    1.02539   1.00
H2       0.56154    1.05030    0.91694   1.00
H2       0.53410    1.04014    0.87444   1.00
H2       0.53583    1.08796    0.89377   1.00
H2       0.56892    1.12529    0.83553   1.00
H2       0.59322    1.09494    0.80208   1.00
H2       0.54536    1.08403    0.81674   1.00
H2       0.72828    1.03107    0.82408   1.00
H2       0.69968    0.99202    0.84002   1.00
H2       0.69148    1.01255    0.79329   1.00
H2       0.65638    1.11069    0.82765   1.00
H2       0.70192    1.09521    0.81078   1.00
H2       0.65950    1.08007    0.78586   1.00
H2       0.60986    1.02516    0.76760   1.00
H2       0.57792    0.98473    0.76549   1.00
H2       0.56168    1.02783    0.78630   1.00
H2       0.64598    0.96151    0.79060   1.00
H2       0.64432    0.94806    0.83977   1.00
H2       0.60672    0.93374    0.80844   1.00
H2       0.64812    0.96059    0.99094   1.00
H2       0.64691    0.97315    1.04055   1.00
H2       0.63452    1.00812    1.00531   1.00
H2       0.71375    0.94402    1.04308   1.00
H2       0.71926    0.93808    0.99259   1.00
H2       0.75378    0.96515    1.01960   1.00
H2       0.81298    1.05802    0.94051   1.00
H2       0.77065    1.05130    0.91244   1.00
H2       0.77465    1.09231    0.94352   1.00
H2       0.77084    1.03692    1.03904   1.00
H2       0.81288    1.05034    1.01301   1.00
H2       0.77415    1.08391    1.01765   1.00
H2       0.62844    1.06432    0.96742   1.00
H2       0.64119    1.11426    0.96465   1.00
H2       0.65666    1.08186    0.92833   1.00
H2       0.67456    1.11943    1.02711   1.00
H2       0.65878    1.07171    1.03830   1.00
H2       0.70843    1.08480    1.04350   1.00
C4       1.18584    0.91259    0.91314   1.00
C4       1.14412    0.91267    0.91387   1.00
C3       1.20864    0.87814    0.91001   1.00
C3       1.12116    0.87819    0.91511   1.00
C3       1.20623    0.94877    0.91631   1.00
C3       1.12386    0.94906    0.91322   1.00
C2       1.27012    0.91472    0.91384   1.00
C2       1.05988    0.91528    0.91616   1.00
C3       1.24962    0.87912    0.91056   1.00
C3       1.08019    0.87943    0.91586   1.00
C3       1.24758    0.94921    0.91608   1.00
C3       1.08262    0.94970    0.91568   1.00
H1       1.19615    0.85133    0.90709   1.00
H1       1.13352    0.85117    0.91576   1.00
C5       1.18520    0.98430    0.91952   1.00
C5       1.14480    0.98462    0.91048   1.00
H1       1.26455    0.85324    0.90848   1.00
H1       1.06510    0.85355    0.91641   1.00
H1       1.26180    0.97547    0.91728   1.00
H1       1.06868    0.97600    0.91770   1.00
O3       1.20461    1.01819    0.92906   1.00
O3       1.12599    1.01929    0.90206   1.00
Si1      1.20747    1.03185    0.97463   1.00
Si1      1.11779    1.03053    0.85652   1.00
C6       1.24038    1.07084    0.96755   1.00
C6       1.16098    1.04895    0.98852   1.00
C6       1.22753    0.99578    1.00548   1.00
C6       1.13193    0.99683    0.82011   1.00
C6       1.06698    1.03689    0.85508   1.00
C6       1.13977    1.07620    0.84793   1.00
C6       1.27694    1.06166    0.94161   1.00
H2       1.22291    1.09136    0.95053   1.00
C6       1.25647    1.09491    1.00306   1.00
H2       1.14858    1.05775    0.96054   1.00
C6       1.13134    1.01918    1.00640   1.00
C6       1.15836    1.08590    1.01524   1.00
H2       1.25331    0.98655    0.98912   1.00
C6       1.24272    1.00934    1.04642   1.00
C6       1.20349    0.95777    1.01447   1.00
C6       1.17571    0.98405    0.81852   1.00
C6       1.10725    0.95889    0.81370   1.00
H2       1.12712    1.01342    0.79335   1.00
H2       1.05551    1.00741    0.85872   1.00
C6       1.04878    1.06128    0.88918   1.00
C6       1.04893    1.05307    0.81642   1.00
H2       1.11875    1.09718    0.85947   1.00
C6       1.17836    1.08459    0.87052   1.00
C6       1.14744    1.08858    0.80461   1.00
H2       1.26846    1.05030    0.91306   1.00
H2       1.29590    1.04014    0.95556   1.00
H2       1.29417    1.08796    0.93623   1.00
H2       1.26108    1.12529    0.99447   1.00
H2       1.23678    1.09494    1.02792   1.00
H2       1.28464    1.08403    1.01326   1.00
H2       1.10172    1.03107    1.00592   1.00
H2       1.13032    0.99202    0.98998   1.00
H2       1.13852    1.01255    1.03671   1.00
H2       1.17362    1.11069    1.00235   1.00
H2       1.12808    1.09521    1.01922   1.00
H2       1.17050    1.08007    1.04414   1.00
H2       1.22014    1.02516    1.06240   1.00
H2       1.25208    0.98473    1.06451   1.00
H2       1.26832    1.02783    1.04370   1.00
H2       1.18402    0.96151    1.03940   1.00
H2       1.18568    0.94806    0.99023   1.00
H2       1.22328    0.93374    1.02156   1.00
H2       1.18188    0.96059    0.83906   1.00
H2       1.18309    0.97315    0.78945   1.00
H2       1.19548    1.00812    0.82469   1.00
H2       1.11625    0.94402    0.78692   1.00
H2       1.11074    0.93808    0.83741   1.00
H2       1.07622    0.96515    0.81040   1.00
H2       1.01702    1.05802    0.88949   1.00
H2       1.05935    1.05130    0.91756   1.00
H2       1.05535    1.09231    0.88648   1.00
H2       1.05916    1.03692    0.79096   1.00
H2       1.01712    1.05034    0.81699   1.00
H2       1.05585    1.08391    0.81235   1.00
H2       1.20156    1.06432    0.86258   1.00
H2       1.18881    1.11426    0.86535   1.00
H2       1.17334    1.08186    0.90167   1.00
H2       1.15544    1.11943    0.80289   1.00
H2       1.17122    1.07171    0.79170   1.00
H2       1.12157    1.08480    0.78650   1.00
C4       0.91686    0.64416    0.91259   1.00
C4       0.91613    0.68588    0.91267   1.00
C3       0.91999    0.62136    0.87814   1.00
C3       0.91489    0.70884    0.87819   1.00
C3       0.91369    0.62377    0.94877   1.00
C3       0.91678    0.70614    0.94906   1.00
C2       0.91616    0.55988    0.91472   1.00
C2       0.91384    0.77012    0.91528   1.00
C3       0.91944    0.58038    0.87912   1.00
C3       0.91414    0.74981    0.87943   1.00
C3       0.91392    0.58242    0.94921   1.00
C3       0.91432    0.74738    0.94970   1.00
H1       0.92291    0.63385    0.85133   1.00
H1       0.91424    0.69648    0.85117   1.00
C5       0.91048    0.64480    0.98430   1.00
C5       0.91952    0.68520    0.98462   1.00
H1       0.92152    0.56545    0.85324   1.00
H1       0.91359    0.76490    0.85355   1.00
H1       0.91272    0.56820    0.97547   1.00
H1       0.91230    0.76132    0.97600   1.00
O3       0.90094    0.62539    1.01819   1.00
O3       0.92794    0.70401    1.01929   1.00
Si1      0.85537    0.62253    1.03185   1.00
Si1      0.97348    0.71221    1.03053   1.00
C6       0.86245    0.58962    1.07084   1.00
C6       0.84148    0.66902    1.04895   1.00
C6       0.82452    0.60247    0.99578   1.00
C6       1.00989    0.69807    0.99683   1.00
C6       0.97492    0.76302    1.03689   1.00
C6       0.98207    0.69023    1.07620   1.00
C6       0.88839    0.55306    1.06166   1.00
H2       0.87947    0.60709    1.09136   1.00
C6       0.82694    0.57353    1.09491   1.00
H2       0.86946    0.68142    1.05775   1.00
C6       0.82360    0.69866    1.01918   1.00
C6       0.81476    0.67164    1.08590   1.00
H2       0.84088    0.57669    0.98655   1.00
C6       0.78358    0.58728    1.00934   1.00
C6       0.81553    0.62651    0.95777   1.00
C6       1.01148    0.65429    0.98405   1.00
C6       1.01630    0.72275    0.95889   1.00
H2       1.03665    0.70288    1.01342   1.00
H2       0.97128    0.77449    1.00741   1.00
C6       0.94082    0.78122    1.06128   1.00
C6       1.01358    0.78107    1.05307   1.00
H2       0.97053    0.71125    1.09718   1.00
C6       0.95948    0.65164    1.08459   1.00
C6       1.02539    0.68256    1.08858   1.00
H2       0.91694    0.56154    1.05030   1.00
H2       0.87444    0.53410    1.04014   1.00
H2       0.89377    0.53583    1.08796   1.00
H2       0.83553    0.56892    1.12529   1.00
H2       0.80208    0.59322    1.09494   1.00
H2       0.81674    0.54536    1.08403   1.00
H2       0.82408    0.72828    1.03107   1.00
H2       0.84002    0.69968    0.99202   1.00
H2       0.79329    0.69148    1.01255   1.00
H2       0.82765    0.65638    1.11069   1.00
H2       0.81078    0.70192    1.09521   1.00
H2       0.78586    0.65950    1.08007   1.00
H2       0.76760    0.60986    1.02516   1.00
H2       0.76549    0.57792    0.98473   1.00
H2       0.78630    0.56168    1.02783   1.00
H2       0.79060    0.64598    0.96151   1.00
H2       0.83977    0.64432    0.94806   1.00
H2       0.80844    0.60672    0.93374   1.00
H2       0.99094    0.64812    0.96059   1.00
H2       1.04055    0.64691    0.97315   1.00
H2       1.00531    0.63452    1.00812   1.00
H2       1.04308    0.71375    0.94402   1.00
H2       0.99259    0.71926    0.93808   1.00
H2       1.01960    0.75378    0.96515   1.00
H2       0.94051    0.81298    1.05802   1.00
H2       0.91244    0.77065    1.05130   1.00
H2       0.94352    0.77465    1.09231   1.00
H2       1.03904    0.77084    1.03692   1.00
H2       1.01301    0.81288    1.05034   1.00
H2       1.01765    0.77415    1.08391   1.00
H2       0.96742    0.62844    1.06432   1.00
H2       0.96465    0.64119    1.11426   1.00
H2       0.92833    0.65666    1.08186   1.00
H2       1.02711    0.67456    1.11943   1.00
H2       1.03830    0.65878    1.07171   1.00
H2       1.04350    0.70843    1.08480   1.00
C4       0.91259    0.91686    0.64416   1.00
C4       0.91267    0.91613    0.68588   1.00
C3       0.87814    0.91999    0.62136   1.00
C3       0.87819    0.91489    0.70884   1.00
C3       0.94877    0.91369    0.62377   1.00
C3       0.94906    0.91678    0.70614   1.00
C2       0.91472    0.91616    0.55988   1.00
C2       0.91528    0.91384    0.77012   1.00
C3       0.87912    0.91944    0.58038   1.00
C3       0.87943    0.91414    0.74981   1.00
C3       0.94921    0.91392    0.58242   1.00
C3       0.94970    0.91432    0.74738   1.00
H1       0.85133    0.92291    0.63385   1.00
H1       0.85117    0.91424    0.69648   1.00
C5       0.98430    0.91048    0.64480   1.00
C5       0.98462    0.91952    0.68520   1.00
H1       0.85324    0.92152    0.56545   1.00
H1       0.85355    0.91359    0.76490   1.00
H1       0.97547    0.91272    0.56820   1.00
H1       0.97600    0.91230    0.76132   1.00
O3       1.01819    0.90094    0.62539   1.00
O3       1.01929    0.92794    0.70401   1.00
Si1      1.03185    0.85537    0.62253   1.00
Si1      1.03053    0.97348    0.71221   1.00
C6       1.07084    0.86245    0.58962   1.00
C6       1.04895    0.84148    0.66902   1.00
C6       0.99578    0.82452    0.60247   1.00
C6       0.99683    1.00989    0.69807   1.00
C6       1.03689    0.97492    0.76302   1.00
C6       1.07620    0.98207    0.69023   1.00
C6       1.06166    0.88839    0.55306   1.00
H2       1.09136    0.87947    0.60709   1.00
C6       1.09491    0.82694    0.57353   1.00
H2       1.05775    0.86946    0.68142   1.00
C6       1.01918    0.82360    0.69866   1.00
C6       1.08590    0.81476    0.67164   1.00
H2       0.98655    0.84088    0.57669   1.00
C6       1.00934    0.78358    0.58728   1.00
C6       0.95777    0.81553    0.62651   1.00
C6       0.98405    1.01148    0.65429   1.00
C6       0.95889    1.01630    0.72275   1.00
H2       1.01342    1.03665    0.70288   1.00
H2       1.00741    0.97128    0.77449   1.00
C6       1.06128    0.94082    0.78122   1.00
C6       1.05307    1.01358    0.78107   1.00
H2       1.09718    0.97053    0.71125   1.00
C6       1.08459    0.95948    0.65164   1.00
C6       1.08858    1.02539    0.68256   1.00
H2       1.05030    0.91694    0.56154   1.00
H2       1.04014    0.87444    0.53410   1.00
H2       1.08796    0.89377    0.53583   1.00
H2       1.12529    0.83553    0.56892   1.00
H2       1.09494    0.80208    0.59322   1.00
H2       1.08403    0.81674    0.54536   1.00
H2       1.03107    0.82408    0.72828   1.00
H2       0.99202    0.84002    0.69968   1.00
H2       1.01255    0.79329    0.69148   1.00
H2       1.11069    0.82765    0.65638   1.00
H2       1.09521    0.81078    0.70192   1.00
H2       1.08007    0.78586    0.65950   1.00
H2       1.02516    0.76760    0.60986   1.00
H2       0.98473    0.76549    0.57792   1.00
H2       1.02783    0.78630    0.56168   1.00
H2       0.96151    0.79060    0.64598   1.00
H2       0.94806    0.83977    0.64432   1.00
H2       0.93374    0.80844    0.60672   1.00
H2       0.96059    0.99094    0.64812   1.00
H2       0.97315    1.04055    0.64691   1.00
H2       1.00812    1.00531    0.63452   1.00
H2       0.94402    1.04308    0.71375   1.00
H2       0.93808    0.99259    0.71926   1.00
H2       0.96515    1.01960    0.75378   1.00
H2       1.05802    0.94051    0.81298   1.00
H2       1.05130    0.91244    0.77065   1.00
H2       1.09231    0.94352    0.77465   1.00
H2       1.03692    1.03904    0.77084   1.00
H2       1.05034    1.01301    0.81288   1.00
H2       1.08391    1.01765    0.77415   1.00
H2       1.06432    0.96742    0.62844   1.00
H2       1.11426    0.96465    0.64119   1.00
H2       1.08186    0.92833    0.65666   1.00
H2       1.11943    1.02711    0.67456   1.00
H2       1.07171    1.03830    0.65878   1.00
H2       1.08480    1.04350    0.70843   1.00
C4       0.41259    0.41314    1.18584   1.00
C4       0.41267    0.41387    1.14412   1.00
C3       0.37814    0.41001    1.20864   1.00
C3       0.37819    0.41511    1.12116   1.00
C3       0.44877    0.41631    1.20623   1.00
C3       0.44906    0.41322    1.12386   1.00
C2       0.41472    0.41384    1.27012   1.00
C2       0.41528    0.41616    1.05988   1.00
C3       0.37912    0.41056    1.24962   1.00
C3       0.37943    0.41586    1.08019   1.00
C3       0.44921    0.41608    1.24758   1.00
C3       0.44970    0.41568    1.08262   1.00
H1       0.35133    0.40709    1.19615   1.00
H1       0.35117    0.41576    1.13352   1.00
C5       0.48430    0.41952    1.18520   1.00
C5       0.48462    0.41048    1.14480   1.00
H1       0.35324    0.40848    1.26455   1.00
H1       0.35355    0.41641    1.06510   1.00
H1       0.47547    0.41728    1.26180   1.00
H1       0.47600    0.41770    1.06868   1.00
O3       0.51819    0.42906    1.20461   1.00
O3       0.51929    0.40206    1.12599   1.00
Si1      0.53185    0.47463    1.20747   1.00
Si1      0.53053    0.35652    1.11779   1.00
C6       0.57084    0.46755    1.24038   1.00
C6       0.54895    0.48852    1.16098   1.00
C6       0.49578    0.50548    1.22753   1.00
C6       0.49683    0.32011    1.13193   1.00
C6       0.53689    0.35508    1.06698   1.00
C6       0.57620    0.34793    1.13977   1.00
C6       0.56166    0.44161    1.27694   1.00
H2       0.59136    0.45053    1.22291   1.00
C6       0.59491    0.50306    1.25647   1.00
H2       0.55775    0.46054    1.14858   1.00
C6       0.51918    0.50640    1.13134   1.00
C6       0.58590    0.51524    1.15836   1.00
H2       0.48655    0.48912    1.25331   1.00
C6       0.50934    0.54642    1.24272   1.00
C6       0.45777    0.51447    1.20349   1.00
C6       0.48405    0.31852    1.17571   1.00
C6       0.45889    0.31370    1.10725   1.00
H2       0.51342    0.29335    1.12712   1.00
H2       0.50741    0.35872    1.05551   1.00
C6       0.56128    0.38918    1.04878   1.00
C6       0.55307    0.31642    1.04893   1.00
H2       0.59718    0.35947    1.11875   1.00
C6       0.58459    0.37052    1.17836   1.00
C6       0.58858    0.30461    1.14744   1.00
H2       0.55030    0.41306    1.26846   1.00
H2       0.54014    0.45556    1.29590   1.00
H2       0.58796    0.43623    1.29417   1.00
H2       0.62529    0.49447    1.26108   1.00
H2       0.59494    0.52792    1.23678   1.00
H2       0.58403    0.51326    1.28464   1.00
H2       0.53107    0.50592    1.10172   1.00
H2       0.49202    0.48998    1.13032   1.00
H2       0.51255    0.53671    1.13852   1.00
H2       0.61069    0.50235    1.17362   1.00
H2       0.59521    0.51922    1.12808   1.00
H2       0.58007    0.54414    1.17050   1.00
H2       0.52516    0.56240    1.22014   1.00
H2       0.48473    0.56451    1.25208   1.00
H2       0.52783    0.54370    1.26832   1.00
H2       0.46151    0.53940    1.18402   1.00
H2       0.44806    0.49023    1.18568   1.00
H2       0.43374    0.52156    1.22328   1.00
H2       0.46059    0.33906    1.18188   1.00
H2       0.47315    0.28945    1.18309   1.00
H2       0.50812    0.32469    1.19548   1.00
H2       0.44402    0.28692    1.11625   1.00
H2       0.43808    0.33741    1.11074   1.00
H2       0.46515    0.31040    1.07622   1.00
H2       0.55802    0.38949    1.01702   1.00
H2       0.55130    0.41756    1.05935   1.00
H2       0.59231    0.38648    1.05535   1.00
H2       0.53692    0.29096    1.05916   1.00
H2       0.55034    0.31699    1.01712   1.00
H2       0.58391    0.31235    1.05585   1.00
H2       0.56432    0.36258    1.20156   1.00
H2       0.61426    0.36535    1.18881   1.00
H2       0.58186    0.40167    1.17334   1.00
H2       0.61943    0.30289    1.15544   1.00
H2       0.57171    0.29170    1.17122   1.00
H2       0.58480    0.28650    1.12157   1.00
C4       0.41314    0.68584    0.91259   1.00
C4       0.41387    0.64412    0.91267   1.00
C3       0.41001    0.70864    0.87814   1.00
C3       0.41511    0.62116    0.87819   1.00
C3       0.41631    0.70623    0.94877   1.00
C3       0.41322    0.62386    0.94906   1.00
C2       0.41384    0.77012    0.91472   1.00
C2       0.41616    0.55988    0.91528   1.00
C3       0.41056    0.74962    0.87912   1.00
C3       0.41586    0.58019    0.87943   1.00
C3       0.41608    0.74758    0.94921   1.00
C3       0.41568    0.58262    0.94970   1.00
H1       0.40709    0.69615    0.85133   1.00
H1       0.41576    0.63352    0.85117   1.00
C5       0.41952    0.68520    0.98430   1.00
C5       0.41048    0.64480    0.98462   1.00
H1       0.40848    0.76455    0.85324   1.00
H1       0.41641    0.56510    0.85355   1.00
H1       0.41728    0.76180    0.97547   1.00
H1       0.41770    0.56868    0.97600   1.00
O3       0.42906    0.70461    1.01819   1.00
O3       0.40206    0.62599    1.01929   1.00
Si1      0.47463    0.70747    1.03185   1.00
Si1      0.35652    0.61779    1.03053   1.00
C6       0.46755    0.74038    1.07084   1.00
C6       0.48852    0.66098    1.04895   1.00
C6       0.50548    0.72753    0.99578   1.00
C6       0.32011    0.63193    0.99683   1.00
C6       0.35508    0.56698    1.03689   1.00
C6       0.34793    0.63977    1.07620   1.00
C6       0.44161    0.77694    1.06166   1.00
H2       0.45053    0.72291    1.09136   1.00
C6       0.50306    0.75647    1.09491   1.00
H2       0.46054    0.64858    1.05775   1.00
C6       0.50640    0.63134    1.01918   1.00
C6       0.51524    0.65836    1.08590   1.00
H2       0.48912    0.75331    0.98655   1.00
C6       0.54642    0.74272    1.00934   1.00
C6       0.51447    0.70349    0.95777   1.00
C6       0.31852    0.67571    0.98405   1.00
C6       0.31370    0.60725    0.95889   1.00
H2       0.29335    0.62712    1.01342   1.00
H2       0.35872    0.55551    1.00741   1.00
C6       0.38918    0.54878    1.06128   1.00
C6       0.31642    0.54893    1.05307   1.00
H2       0.35947    0.61875    1.09718   1.00
C6       0.37052    0.67836    1.08459   1.00
C6       0.30461    0.64744    1.08858   1.00
H2       0.41306    0.76846    1.05030   1.00
H2       0.45556    0.79590    1.04014   1.00
H2       0.43623    0.79417    1.08796   1.00
H2       0.49447    0.76108    1.12529   1.00
H2       0.52792    0.73678    1.09494   1.00
H2       0.51326    0.78464    1.08403   1.00
H2       0.50592    0.60172    1.03107   1.00
H2       0.48998    0.63032    0.99202   1.00
H2       0.53671    0.63852    1.01255   1.00
H2       0.50235    0.67362    1.11069   1.00
H2       0.51922    0.62808    1.09521   1.00
H2       0.54414    0.67050    1.08007   1.00
H2       0.56240    0.72014    1.02516   1.00
H2       0.56451    0.75208    0.98473   1.00
H2       0.54370    0.76832    1.02783   1.00
H2       0.53940    0.68402    0.96151   1.00
H2       0.49023    0.68568    0.94806   1.00
H2       0.52156    0.72328    0.93374   1.00
H2       0.33906    0.68188    0.96059   1.00
H2       0.28945    0.68309    0.97315   1.00
H2       0.32469    0.69548    1.00812   1.00
H2       0.28692    0.61625    0.94402   1.00
H2       0.33741    0.61074    0.93808   1.00
H2       0.31040    0.57622    0.96515   1.00
H2       0.38949    0.51702    1.05802   1.00
H2       0.41756    0.55935    1.05130   1.00
H2       0.38648    0.55535    1.09231   1.00
H2       0.29096    0.55916    1.03692   1.00
H2       0.31699    0.51712    1.05034   1.00
H2       0.31235    0.55585    1.08391   1.00
H2       0.36258    0.70156    1.06432   1.00
H2       0.36535    0.68881    1.11426   1.00
H2       0.40167    0.67334    1.08186   1.00
H2       0.30289    0.65544    1.11943   1.00
H2       0.29170    0.67122    1.07171   1.00
H2       0.28650    0.62157    1.08480   1.00
C4       0.14416    0.41259    0.91686   1.00
C4       0.18588    0.41267    0.91613   1.00
C3       0.12136    0.37814    0.91999   1.00
C3       0.20884    0.37819    0.91489   1.00
C3       0.12377    0.44877    0.91369   1.00
C3       0.20614    0.44906    0.91678   1.00
C2       0.05988    0.41472    0.91616   1.00
C2       0.27012    0.41528    0.91384   1.00
C3       0.08038    0.37912    0.91944   1.00
C3       0.24981    0.37943    0.91414   1.00
C3       0.08242    0.44921    0.91392   1.00
C3       0.24738    0.44970    0.91432   1.00
H1       0.13385    0.35133    0.92291   1.00
H1       0.19648    0.35117    0.91424   1.00
C5       0.14480    0.48430    0.91048   1.00
C5       0.18520    0.48462    0.91952   1.00
H1       0.06545    0.35324    0.92152   1.00
H1       0.26490    0.35355    0.91359   1.00
H1       0.06820    0.47547    0.91272   1.00
H1       0.26132    0.47600    0.91230   1.00
O3       0.12539    0.51819    0.90094   1.00
O3       0.20401    0.51929    0.92794   1.00
Si1      0.12253    0.53185    0.85537   1.00
Si1      0.21221    0.53053    0.97348   1.00
C6       0.08962    0.57084    0.86245   1.00
C6       0.16902    0.54895    0.84148   1.00
C6       0.10247    0.49578    0.82452   1.00
C6       0.19807    0.49683    1.00989   1.00
C6       0.26302    0.53689    0.97492   1.00
C6       0.19023    0.57620    0.98207   1.00
C6       0.05306    0.56166    0.88839   1.00
H2       0.10709    0.59136    0.87947   1.00
C6       0.07353    0.59491    0.82694   1.00
H2       0.18142    0.55775    0.86946   1.00
C6       0.19866    0.51918    0.82360   1.00
C6       0.17164    0.58590    0.81476   1.00
H2       0.07669    0.48655    0.84088   1.00
C6       0.08728    0.50934    0.78358   1.00
C6       0.12651    0.45777    0.81553   1.00
C6       0.15429    0.48405    1.01148   1.00
C6       0.22275    0.45889    1.01630   1.00
H2       0.20288    0.51342    1.03665   1.00
H2       0.27449    0.50741    0.97128   1.00
C6       0.28122    0.56128    0.94082   1.00
C6       0.28107    0.55307    1.01358   1.00
H2       0.21125    0.59718    0.97053   1.00
C6       0.15164    0.58459    0.95948   1.00
C6       0.18256    0.58858    1.02539   1.00
H2       0.06154    0.55030    0.91694   1.00
H2       0.03410    0.54014    0.87444   1.00
H2       0.03583    0.58796    0.89377   1.00
H2       0.06892    0.62529    0.83553   1.00
H2       0.09322    0.59494    0.80208   1.00
H2       0.04536    0.58403    0.81674   1.00
H2       0.22828    0.53107    0.82408   1.00
H2       0.19968    0.49202    0.84002   1.00
H2       0.19148    0.51255    0.79329   1.00
H2       0.15638    0.61069    0.82765   1.00
H2       0.20192    0.59521    0.81078   1.00
H2       0.15950    0.58007    0.78586   1.00
H2       0.10986    0.52516    0.76760   1.00
H2       0.07792    0.48473    0.76549   1.00
H2       0.06168    0.52783    0.78630   1.00
H2       0.14598    0.46151    0.79060   1.00
H2       0.14432    0.44806    0.83977   1.00
H2       0.10672    0.43374    0.80844   1.00
H2       0.14812    0.46059    0.99094   1.00
H2       0.14691    0.47315    1.04055   1.00
H2       0.13452    0.50812    1.00531   1.00
H2       0.21375    0.44402    1.04308   1.00
H2       0.21926    0.43808    0.99259   1.00
H2       0.25378    0.46515    1.01960   1.00
H2       0.31298    0.55802    0.94051   1.00
H2       0.27065    0.55130    0.91244   1.00
H2       0.27465    0.59231    0.94352   1.00
H2       0.27084    0.53692    1.03904   1.00
H2       0.31288    0.55034    1.01301   1.00
H2       0.27415    0.58391    1.01765   1.00
H2       0.12844    0.56432    0.96742   1.00
H2       0.14119    0.61426    0.96465   1.00
H2       0.15666    0.58186    0.92833   1.00
H2       0.17456    0.61943    1.02711   1.00
H2       0.15878    0.57171    1.03830   1.00
H2       0.20843    0.58480    1.04350   1.00
C4       0.68584    0.41259    0.91314   1.00
C4       0.64412    0.41267    0.91387   1.00
C3       0.70864    0.37814    0.91001   1.00
C3       0.62116    0.37819    0.91511   1.00
C3       0.70623    0.44877    0.91631   1.00
C3       0.62386    0.44906    0.91322   1.00
C2       0.77012    0.41472    0.91384   1.00
C2       0.55988    0.41528    0.91616   1.00
C3       0.74962    0.37912    0.91056   1.00
C3       0.58019    0.37943    0.91586   1.00
C3       0.74758    0.44921    0.91608   1.00
C3       0.58262    0.44970    0.91568   1.00
H1       0.69615    0.35133    0.90709   1.00
H1       0.63352    0.35117    0.91576   1.00
C5       0.68520    0.48430    0.91952   1.00
C5       0.64480    0.48462    0.91048   1.00
H1       0.76455    0.35324    0.90848   1.00
H1       0.56510    0.35355    0.91641   1.00
H1       0.76180    0.47547    0.91728   1.00
H1       0.56868    0.47600    0.91770   1.00
O3       0.70461    0.51819    0.92906   1.00
O3       0.62599    0.51929    0.90206   1.00
Si1      0.70747    0.53185    0.97463   1.00
Si1      0.61779    0.53053    0.85652   1.00
C6       0.74038    0.57084    0.96755   1.00
C6       0.66098    0.54895    0.98852   1.00
C6       0.72753    0.49578    1.00548   1.00
C6       0.63193    0.49683    0.82011   1.00
C6       0.56698    0.53689    0.85508   1.00
C6       0.63977    0.57620    0.84793   1.00
C6       0.77694    0.56166    0.94161   1.00
H2       0.72291    0.59136    0.95053   1.00
C6       0.75647    0.59491    1.00306   1.00
H2       0.64858    0.55775    0.96054   1.00
C6       0.63134    0.51918    1.00640   1.00
C6       0.65836    0.58590    1.01524   1.00
H2       0.75331    0.48655    0.98912   1.00
C6       0.74272    0.50934    1.04642   1.00
C6       0.70349    0.45777    1.01447   1.00
C6       0.67571    0.48405    0.81852   1.00
C6       0.60725    0.45889    0.81370   1.00
H2       0.62712    0.51342    0.79335   1.00
H2       0.55551    0.50741    0.85872   1.00
C6       0.54878    0.56128    0.88918   1.00
C6       0.54893    0.55307    0.81642   1.00
H2       0.61875    0.59718    0.85947   1.00
C6       0.67836    0.58459    0.87052   1.00
C6       0.64744    0.58858    0.80461   1.00
H2       0.76846    0.55030    0.91306   1.00
H2       0.79590    0.54014    0.95556   1.00
H2       0.79417    0.58796    0.93623   1.00
H2       0.76108    0.62529    0.99447   1.00
H2       0.73678    0.59494    1.02792   1.00
H2       0.78464    0.58403    1.01326   1.00
H2       0.60172    0.53107    1.00592   1.00
H2       0.63032    0.49202    0.98998   1.00
H2       0.63852    0.51255    1.03671   1.00
H2       0.67362    0.61069    1.00235   1.00
H2       0.62808    0.59521    1.01922   1.00
H2       0.67050    0.58007    1.04414   1.00
H2       0.72014    0.52516    1.06240   1.00
H2       0.75208    0.48473    1.06451   1.00
H2       0.76832    0.52783    1.04370   1.00
H2       0.68402    0.46151    1.03940   1.00
H2       0.68568    0.44806    0.99023   1.00
H2       0.72328    0.43374    1.02156   1.00
H2       0.68188    0.46059    0.83906   1.00
H2       0.68309    0.47315    0.78945   1.00
H2       0.69548    0.50812    0.82469   1.00
H2       0.61625    0.44402    0.78692   1.00
H2       0.61074    0.43808    0.83741   1.00
H2       0.57622    0.46515    0.81040   1.00
H2       0.51702    0.55802    0.88949   1.00
H2       0.55935    0.55130    0.91756   1.00
H2       0.55535    0.59231    0.88648   1.00
H2       0.55916    0.53692    0.79096   1.00
H2       0.51712    0.55034    0.81699   1.00
H2       0.55585    0.58391    0.81235   1.00
H2       0.70156    0.56432    0.86258   1.00
H2       0.68881    0.61426    0.86535   1.00
H2       0.67334    0.58186    0.90167   1.00
H2       0.65544    0.61943    0.80289   1.00
H2       0.67122    0.57171    0.79170   1.00
H2       0.62157    0.58480    0.78650   1.00
C4       0.41686    0.14416    0.91259   1.00
C4       0.41613    0.18588    0.91267   1.00
C3       0.41999    0.12136    0.87814   1.00
C3       0.41489    0.20884    0.87819   1.00
C3       0.41369    0.12377    0.94877   1.00
C3       0.41678    0.20614    0.94906   1.00
C2       0.41616    0.05988    0.91472   1.00
C2       0.41384    0.27012    0.91528   1.00
C3       0.41944    0.08038    0.87912   1.00
C3       0.41414    0.24981    0.87943   1.00
C3       0.41392    0.08242    0.94921   1.00
C3       0.41432    0.24738    0.94970   1.00
H1       0.42291    0.13385    0.85133   1.00
H1       0.41424    0.19648    0.85117   1.00
C5       0.41048    0.14480    0.98430   1.00
C5       0.41952    0.18520    0.98462   1.00
H1       0.42152    0.06545    0.85324   1.00
H1       0.41359    0.26490    0.85355   1.00
H1       0.41272    0.06820    0.97547   1.00
H1       0.41230    0.26132    0.97600   1.00
O3       0.40094    0.12539    1.01819   1.00
O3       0.42794    0.20401    1.01929   1.00
Si1      0.35537    0.12253    1.03185   1.00
Si1      0.47348    0.21221    1.03053   1.00
C6       0.36245    0.08962    1.07084   1.00
C6       0.34148    0.16902    1.04895   1.00
C6       0.32452    0.10247    0.99578   1.00
C6       0.50989    0.19807    0.99683   1.00
C6       0.47492    0.26302    1.03689   1.00
C6       0.48207    0.19023    1.07620   1.00
C6       0.38839    0.05306    1.06166   1.00
H2       0.37947    0.10709    1.09136   1.00
C6       0.32694    0.07353    1.09491   1.00
H2       0.36946    0.18142    1.05775   1.00
C6       0.32360    0.19866    1.01918   1.00
C6       0.31476    0.17164    1.08590   1.00
H2       0.34088    0.07669    0.98655   1.00
C6       0.28358    0.08728    1.00934   1.00
C6       0.31553    0.12651    0.95777   1.00
C6       0.51148    0.15429    0.98405   1.00
C6       0.51630    0.22275    0.95889   1.00
H2       0.53665    0.20288    1.01342   1.00
H2       0.47128    0.27449    1.00741   1.00
C6       0.44082    0.28122    1.06128   1.00
C6       0.51358    0.28107    1.05307   1.00
H2       0.47053    0.21125    1.09718   1.00
C6       0.45948    0.15164    1.08459   1.00
C6       0.52539    0.18256    1.08858   1.00
H2       0.41694    0.06154    1.05030   1.00
H2       0.37444    0.03410    1.04014   1.00
H2       0.39377    0.03583    1.08796   1.00
H2       0.33553    0.06892    1.12529   1.00
H2       0.30208    0.09322    1.09494   1.00
H2       0.31674    0.04536    1.08403   1.00
H2       0.32408    0.22828    1.03107   1.00
H2       0.34002    0.19968    0.99202   1.00
H2       0.29329    0.19148    1.01255   1.00
H2       0.32765    0.15638    1.11069   1.00
H2       0.31078    0.20192    1.09521   1.00
H2       0.28586    0.15950    1.08007   1.00
H2       0.26760    0.10986    1.02516   1.00
H2       0.26549    0.07792    0.98473   1.00
H2       0.28630    0.06168    1.02783   1.00
H2       0.29060    0.14598    0.96151   1.00
H2       0.33977    0.14432    0.94806   1.00
H2       0.30844    0.10672    0.93374   1.00
H2       0.49094    0.14812    0.96059   1.00
H2       0.54055    0.14691    0.97315   1.00
H2       0.50531    0.13452    1.00812   1.00
H2       0.54308    0.21375    0.94402   1.00
H2       0.49259    0.21926    0.93808   1.00
H2       0.51960    0.25378    0.96515   1.00
H2       0.44051    0.31298    1.05802   1.00
H2       0.41244    0.27065    1.05130   1.00
H2       0.44352    0.27465    1.09231   1.00
H2       0.53904    0.27084    1.03692   1.00
H2       0.51301    0.31288    1.05034   1.00
H2       0.51765    0.27415    1.08391   1.00
H2       0.46742    0.12844    1.06432   1.00
H2       0.46465    0.14119    1.11426   1.00
H2       0.42833    0.15666    1.08186   1.00
H2       0.52711    0.17456    1.11943   1.00
H2       0.53830    0.15878    1.07171   1.00
H2       0.54350    0.20843    1.08480   1.00
C4       0.41259    0.41686    0.64416   1.00
C4       0.41267    0.41613    0.68588   1.00
C3       0.37814    0.41999    0.62136   1.00
C3       0.37819    0.41489    0.70884   1.00
C3       0.44877    0.41369    0.62377   1.00
C3       0.44906    0.41678    0.70614   1.00
C2       0.41472    0.41616    0.55988   1.00
C2       0.41528    0.41384    0.77012   1.00
C3       0.37912    0.41944    0.58038   1.00
C3       0.37943    0.41414    0.74981   1.00
C3       0.44921    0.41392    0.58242   1.00
C3       0.44970    0.41432    0.74738   1.00
H1       0.35133    0.42291    0.63385   1.00
H1       0.35117    0.41424    0.69648   1.00
C5       0.48430    0.41048    0.64480   1.00
C5       0.48462    0.41952    0.68520   1.00
H1       0.35324    0.42152    0.56545   1.00
H1       0.35355    0.41359    0.76490   1.00
H1       0.47547    0.41272    0.56820   1.00
H1       0.47600    0.41230    0.76132   1.00
O3       0.51819    0.40094    0.62539   1.00
O3       0.51929    0.42794    0.70401   1.00
Si1      0.53185    0.35537    0.62253   1.00
Si1      0.53053    0.47348    0.71221   1.00
C6       0.57084    0.36245    0.58962   1.00
C6       0.54895    0.34148    0.66902   1.00
C6       0.49578    0.32452    0.60247   1.00
C6       0.49683    0.50989    0.69807   1.00
C6       0.53689    0.47492    0.76302   1.00
C6       0.57620    0.48207    0.69023   1.00
C6       0.56166    0.38839    0.55306   1.00
H2       0.59136    0.37947    0.60709   1.00
C6       0.59491    0.32694    0.57353   1.00
H2       0.55775    0.36946    0.68142   1.00
C6       0.51918    0.32360    0.69866   1.00
C6       0.58590    0.31476    0.67164   1.00
H2       0.48655    0.34088    0.57669   1.00
C6       0.50934    0.28358    0.58728   1.00
C6       0.45777    0.31553    0.62651   1.00
C6       0.48405    0.51148    0.65429   1.00
C6       0.45889    0.51630    0.72275   1.00
H2       0.51342    0.53665    0.70288   1.00
H2       0.50741    0.47128    0.77449   1.00
C6       0.56128    0.44082    0.78122   1.00
C6       0.55307    0.51358    0.78107   1.00
H2       0.59718    0.47053    0.71125   1.00
C6       0.58459    0.45948    0.65164   1.00
C6       0.58858    0.52539    0.68256   1.00
H2       0.55030    0.41694    0.56154   1.00
H2       0.54014    0.37444    0.53410   1.00
H2       0.58796    0.39377    0.53583   1.00
H2       0.62529    0.33553    0.56892   1.00
H2       0.59494    0.30208    0.59322   1.00
H2       0.58403    0.31674    0.54536   1.00
H2       0.53107    0.32408    0.72828   1.00
H2       0.49202    0.34002    0.69968   1.00
H2       0.51255    0.29329    0.69148   1.00
H2       0.61069    0.32765    0.65638   1.00
H2       0.59521    0.31078    0.70192   1.00
H2       0.58007    0.28586    0.65950   1.00
H2       0.52516    0.26760    0.60986   1.00
H2       0.48473    0.26549    0.57792   1.00
H2       0.52783    0.28630    0.56168   1.00
H2       0.46151    0.29060    0.64598   1.00
H2       0.44806    0.33977    0.64432   1.00
H2       0.43374    0.30844    0.60672   1.00
H2       0.46059    0.49094    0.64812   1.00
H2       0.47315    0.54055    0.64691   1.00
H2       0.50812    0.50531    0.63452   1.00
H2       0.44402    0.54308    0.71375   1.00
H2       0.43808    0.49259    0.71926   1.00
H2       0.46515    0.51960    0.75378   1.00
H2       0.55802    0.44051    0.81298   1.00
H2       0.55130    0.41244    0.77065   1.00
H2       0.59231    0.44352    0.77465   1.00
H2       0.53692    0.53904    0.77084   1.00
H2       0.55034    0.51301    0.81288   1.00
H2       0.58391    0.51765    0.77415   1.00
H2       0.56432    0.46742    0.62844   1.00
H2       0.61426    0.46465    0.64119   1.00
H2       0.58186    0.42833    0.65666   1.00
H2       0.61943    0.52711    0.67456   1.00
H2       0.57171    0.53830    0.65878   1.00
H2       0.58480    0.54350    0.70843   1.00
C4       0.41259    0.91314    0.68584   1.00
C4       0.41267    0.91387    0.64412   1.00
C3       0.37814    0.91001    0.70864   1.00
C3       0.37819    0.91511    0.62116   1.00
C3       0.44877    0.91631    0.70623   1.00
C3       0.44906    0.91322    0.62386   1.00
C2       0.41472    0.91384    0.77012   1.00
C2       0.41528    0.91616    0.55988   1.00
C3       0.37912    0.91056    0.74962   1.00
C3       0.37943    0.91586    0.58019   1.00
C3       0.44921    0.91608    0.74758   1.00
C3       0.44970    0.91568    0.58262   1.00
H1       0.35133    0.90709    0.69615   1.00
H1       0.35117    0.91576    0.63352   1.00
C5       0.48430    0.91952    0.68520   1.00
C5       0.48462    0.91048    0.64480   1.00
H1       0.35324    0.90848    0.76455   1.00
H1       0.35355    0.91641    0.56510   1.00
H1       0.47547    0.91728    0.76180   1.00
H1       0.47600    0.91770    0.56868   1.00
O3       0.51819    0.92906    0.70461   1.00
O3       0.51929    0.90206    0.62599   1.00
Si1      0.53185    0.97463    0.70747   1.00
Si1      0.53053    0.85652    0.61779   1.00
C6       0.57084    0.96755    0.74038   1.00
C6       0.54895    0.98852    0.66098   1.00
C6       0.49578    1.00548    0.72753   1.00
C6       0.49683    0.82011    0.63193   1.00
C6       0.53689    0.85508    0.56698   1.00
C6       0.57620    0.84793    0.63977   1.00
C6       0.56166    0.94161    0.77694   1.00
H2       0.59136    0.95053    0.72291   1.00
C6       0.59491    1.00306    0.75647   1.00
H2       0.55775    0.96054    0.64858   1.00
C6       0.51918    1.00640    0.63134   1.00
C6       0.58590    1.01524    0.65836   1.00
H2       0.48655    0.98912    0.75331   1.00
C6       0.50934    1.04642    0.74272   1.00
C6       0.45777    1.01447    0.70349   1.00
C6       0.48405    0.81852    0.67571   1.00
C6       0.45889    0.81370    0.60725   1.00
H2       0.51342    0.79335    0.62712   1.00
H2       0.50741    0.85872    0.55551   1.00
C6       0.56128    0.88918    0.54878   1.00
C6       0.55307    0.81642    0.54893   1.00
H2       0.59718    0.85947    0.61875   1.00
C6       0.58459    0.87052    0.67836   1.00
C6       0.58858    0.80461    0.64744   1.00
H2       0.55030    0.91306    0.76846   1.00
H2       0.54014    0.95556    0.79590   1.00
H2       0.58796    0.93623    0.79417   1.00
H2       0.62529    0.99447    0.76108   1.00
H2       0.59494    1.02792    0.73678   1.00
H2       0.58403    1.01326    0.78464   1.00
H2       0.53107    1.00592    0.60172   1.00
H2       0.49202    0.98998    0.63032   1.00
H2       0.51255    1.03671    0.63852   1.00
H2       0.61069    1.00235    0.67362   1.00
H2       0.59521    1.01922    0.62808   1.00
H2       0.58007    1.04414    0.67050   1.00
H2       0.52516    1.06240    0.72014   1.00
H2       0.48473    1.06451    0.75208   1.00
H2       0.52783    1.04370    0.76832   1.00
H2       0.46151    1.03940    0.68402   1.00
H2       0.44806    0.99023    0.68568   1.00
H2       0.43374    1.02156    0.72328   1.00
H2       0.46059    0.83906    0.68188   1.00
H2       0.47315    0.78945    0.68309   1.00
H2       0.50812    0.82469    0.69548   1.00
H2       0.44402    0.78692    0.61625   1.00
H2       0.43808    0.83741    0.61074   1.00
H2       0.46515    0.81040    0.57622   1.00
H2       0.55802    0.88949    0.51702   1.00
H2       0.55130    0.91756    0.55935   1.00
H2       0.59231    0.88648    0.55535   1.00
H2       0.53692    0.79096    0.55916   1.00
H2       0.55034    0.81699    0.51712   1.00
H2       0.58391    0.81235    0.55585   1.00
H2       0.56432    0.86258    0.70156   1.00
H2       0.61426    0.86535    0.68881   1.00
H2       0.58186    0.90167    0.67334   1.00
H2       0.61943    0.80289    0.65544   1.00
H2       0.57171    0.79170    0.67122   1.00
H2       0.58480    0.78650    0.62157   1.00
C4       0.41314    1.18584    0.41259   1.00
C4       0.41387    1.14412    0.41267   1.00
C3       0.41001    1.20864    0.37814   1.00
C3       0.41511    1.12116    0.37819   1.00
C3       0.41631    1.20623    0.44877   1.00
C3       0.41322    1.12386    0.44906   1.00
C2       0.41384    1.27012    0.41472   1.00
C2       0.41616    1.05988    0.41528   1.00
C3       0.41056    1.24962    0.37912   1.00
C3       0.41586    1.08019    0.37943   1.00
C3       0.41608    1.24758    0.44921   1.00
C3       0.41568    1.08262    0.44970   1.00
H1       0.40709    1.19615    0.35133   1.00
H1       0.41576    1.13352    0.35117   1.00
C5       0.41952    1.18520    0.48430   1.00
C5       0.41048    1.14480    0.48462   1.00
H1       0.40848    1.26455    0.35324   1.00
H1       0.41641    1.06510    0.35355   1.00
H1       0.41728    1.26180    0.47547   1.00
H1       0.41770    1.06868    0.47600   1.00
O3       0.42906    1.20461    0.51819   1.00
O3       0.40206    1.12599    0.51929   1.00
Si1      0.47463    1.20747    0.53185   1.00
Si1      0.35652    1.11779    0.53053   1.00
C6       0.46755    1.24038    0.57084   1.00
C6       0.48852    1.16098    0.54895   1.00
C6       0.50548    1.22753    0.49578   1.00
C6       0.32011    1.13193    0.49683   1.00
C6       0.35508    1.06698    0.53689   1.00
C6       0.34793    1.13977    0.57620   1.00
C6       0.44161    1.27694    0.56166   1.00
H2       0.45053    1.22291    0.59136   1.00
C6       0.50306    1.25647    0.59491   1.00
H2       0.46054    1.14858    0.55775   1.00
C6       0.50640    1.13134    0.51918   1.00
C6       0.51524    1.15836    0.58590   1.00
H2       0.48912    1.25331    0.48655   1.00
C6       0.54642    1.24272    0.50934   1.00
C6       0.51447    1.20349    0.45777   1.00
C6       0.31852    1.17571    0.48405   1.00
C6       0.31370    1.10725    0.45889   1.00
H2       0.29335    1.12712    0.51342   1.00
H2       0.35872    1.05551    0.50741   1.00
C6       0.38918    1.04878    0.56128   1.00
C6       0.31642    1.04893    0.55307   1.00
H2       0.35947    1.11875    0.59718   1.00
C6       0.37052    1.17836    0.58459   1.00
C6       0.30461    1.14744    0.58858   1.00
H2       0.41306    1.26846    0.55030   1.00
H2       0.45556    1.29590    0.54014   1.00
H2       0.43623    1.29417    0.58796   1.00
H2       0.49447    1.26108    0.62529   1.00
H2       0.52792    1.23678    0.59494   1.00
H2       0.51326    1.28464    0.58403   1.00
H2       0.50592    1.10172    0.53107   1.00
H2       0.48998    1.13032    0.49202   1.00
H2       0.53671    1.13852    0.51255   1.00
H2       0.50235    1.17362    0.61069   1.00
H2       0.51922    1.12808    0.59521   1.00
H2       0.54414    1.17050    0.58007   1.00
H2       0.56240    1.22014    0.52516   1.00
H2       0.56451    1.25208    0.48473   1.00
H2       0.54370    1.26832    0.52783   1.00
H2       0.53940    1.18402    0.46151   1.00
H2       0.49023    1.18568    0.44806   1.00
H2       0.52156    1.22328    0.43374   1.00
H2       0.33906    1.18188    0.46059   1.00
H2       0.28945    1.18309    0.47315   1.00
H2       0.32469    1.19548    0.50812   1.00
H2       0.28692    1.11625    0.44402   1.00
H2       0.33741    1.11074    0.43808   1.00
H2       0.31040    1.07622    0.46515   1.00
H2       0.38949    1.01702    0.55802   1.00
H2       0.41756    1.05935    0.55130   1.00
H2       0.38648    1.05535    0.59231   1.00
H2       0.29096    1.05916    0.53692   1.00
H2       0.31699    1.01712    0.55034   1.00
H2       0.31235    1.05585    0.58391   1.00
H2       0.36258    1.20156    0.56432   1.00
H2       0.36535    1.18881    0.61426   1.00
H2       0.40167    1.17334    0.58186   1.00
H2       0.30289    1.15544    0.61943   1.00
H2       0.29170    1.17122    0.57171   1.00
H2       0.28650    1.12157    0.58480   1.00
C4       0.14416    0.91259    0.41686   1.00
C4       0.18588    0.91267    0.41613   1.00
C3       0.12136    0.87814    0.41999   1.00
C3       0.20884    0.87819    0.41489   1.00
C3       0.12377    0.94877    0.41369   1.00
C3       0.20614    0.94906    0.41678   1.00
C2       0.05988    0.91472    0.41616   1.00
C2       0.27012    0.91528    0.41384   1.00
C3       0.08038    0.87912    0.41944   1.00
C3       0.24981    0.87943    0.41414   1.00
C3       0.08242    0.94921    0.41392   1.00
C3       0.24738    0.94970    0.41432   1.00
H1       0.13385    0.85133    0.42291   1.00
H1       0.19648    0.85117    0.41424   1.00
C5       0.14480    0.98430    0.41048   1.00
C5       0.18520    0.98462    0.41952   1.00
H1       0.06545    0.85324    0.42152   1.00
H1       0.26490    0.85355    0.41359   1.00
H1       0.06820    0.97547    0.41272   1.00
H1       0.26132    0.97600    0.41230   1.00
O3       0.12539    1.01819    0.40094   1.00
O3       0.20401    1.01929    0.42794   1.00
Si1      0.12253    1.03185    0.35537   1.00
Si1      0.21221    1.03053    0.47348   1.00
C6       0.08962    1.07084    0.36245   1.00
C6       0.16902    1.04895    0.34148   1.00
C6       0.10247    0.99578    0.32452   1.00
C6       0.19807    0.99683    0.50989   1.00
C6       0.26302    1.03689    0.47492   1.00
C6       0.19023    1.07620    0.48207   1.00
C6       0.05306    1.06166    0.38839   1.00
H2       0.10709    1.09136    0.37947   1.00
C6       0.07353    1.09491    0.32694   1.00
H2       0.18142    1.05775    0.36946   1.00
C6       0.19866    1.01918    0.32360   1.00
C6       0.17164    1.08590    0.31476   1.00
H2       0.07669    0.98655    0.34088   1.00
C6       0.08728    1.00934    0.28358   1.00
C6       0.12651    0.95777    0.31553   1.00
C6       0.15429    0.98405    0.51148   1.00
C6       0.22275    0.95889    0.51630   1.00
H2       0.20288    1.01342    0.53665   1.00
H2       0.27449    1.00741    0.47128   1.00
C6       0.28122    1.06128    0.44082   1.00
C6       0.28107    1.05307    0.51358   1.00
H2       0.21125    1.09718    0.47053   1.00
C6       0.15164    1.08459    0.45948   1.00
C6       0.18256    1.08858    0.52539   1.00
H2       0.06154    1.05030    0.41694   1.00
H2       0.03410    1.04014    0.37444   1.00
H2       0.03583    1.08796    0.39377   1.00
H2       0.06892    1.12529    0.33553   1.00
H2       0.09322    1.09494    0.30208   1.00
H2       0.04536    1.08403    0.31674   1.00
H2       0.22828    1.03107    0.32408   1.00
H2       0.19968    0.99202    0.34002   1.00
H2       0.19148    1.01255    0.29329   1.00
H2       0.15638    1.11069    0.32765   1.00
H2       0.20192    1.09521    0.31078   1.00
H2       0.15950    1.08007    0.28586   1.00
H2       0.10986    1.02516    0.26760   1.00
H2       0.07792    0.98473    0.26549   1.00
H2       0.06168    1.02783    0.28630   1.00
H2       0.14598    0.96151    0.29060   1.00
H2       0.14432    0.94806    0.33977   1.00
H2       0.10672    0.93374    0.30844   1.00
H2       0.14812    0.96059    0.49094   1.00
H2       0.14691    0.97315    0.54055   1.00
H2       0.13452    1.00812    0.50531   1.00
H2       0.21375    0.94402    0.54308   1.00
H2       0.21926    0.93808    0.49259   1.00
H2       0.25378    0.96515    0.51960   1.00
H2       0.31298    1.05802    0.44051   1.00
H2       0.27065    1.05130    0.41244   1.00
H2       0.27465    1.09231    0.44352   1.00
H2       0.27084    1.03692    0.53904   1.00
H2       0.31288    1.05034    0.51301   1.00
H2       0.27415    1.08391    0.51765   1.00
H2       0.12844    1.06432    0.46742   1.00
H2       0.14119    1.11426    0.46465   1.00
H2       0.15666    1.08186    0.42833   1.00
H2       0.17456    1.11943    0.52711   1.00
H2       0.15878    1.07171    0.53830   1.00
H2       0.20843    1.08480    0.54350   1.00
C4       0.68584    0.91259    0.41314   1.00
C4       0.64412    0.91267    0.41387   1.00
C3       0.70864    0.87814    0.41001   1.00
C3       0.62116    0.87819    0.41511   1.00
C3       0.70623    0.94877    0.41631   1.00
C3       0.62386    0.94906    0.41322   1.00
C2       0.77012    0.91472    0.41384   1.00
C2       0.55988    0.91528    0.41616   1.00
C3       0.74962    0.87912    0.41056   1.00
C3       0.58019    0.87943    0.41586   1.00
C3       0.74758    0.94921    0.41608   1.00
C3       0.58262    0.94970    0.41568   1.00
H1       0.69615    0.85133    0.40709   1.00
H1       0.63352    0.85117    0.41576   1.00
C5       0.68520    0.98430    0.41952   1.00
C5       0.64480    0.98462    0.41048   1.00
H1       0.76455    0.85324    0.40848   1.00
H1       0.56510    0.85355    0.41641   1.00
H1       0.76180    0.97547    0.41728   1.00
H1       0.56868    0.97600    0.41770   1.00
O3       0.70461    1.01819    0.42906   1.00
O3       0.62599    1.01929    0.40206   1.00
Si1      0.70747    1.03185    0.47463   1.00
Si1      0.61779    1.03053    0.35652   1.00
C6       0.74038    1.07084    0.46755   1.00
C6       0.66098    1.04895    0.48852   1.00
C6       0.72753    0.99578    0.50548   1.00
C6       0.63193    0.99683    0.32011   1.00
C6       0.56698    1.03689    0.35508   1.00
C6       0.63977    1.07620    0.34793   1.00
C6       0.77694    1.06166    0.44161   1.00
H2       0.72291    1.09136    0.45053   1.00
C6       0.75647    1.09491    0.50306   1.00
H2       0.64858    1.05775    0.46054   1.00
C6       0.63134    1.01918    0.50640   1.00
C6       0.65836    1.08590    0.51524   1.00
H2       0.75331    0.98655    0.48912   1.00
C6       0.74272    1.00934    0.54642   1.00
C6       0.70349    0.95777    0.51447   1.00
C6       0.67571    0.98405    0.31852   1.00
C6       0.60725    0.95889    0.31370   1.00
H2       0.62712    1.01342    0.29335   1.00
H2       0.55551    1.00741    0.35872   1.00
C6       0.54878    1.06128    0.38918   1.00
C6       0.54893    1.05307    0.31642   1.00
H2       0.61875    1.09718    0.35947   1.00
C6       0.67836    1.08459    0.37052   1.00
C6       0.64744    1.08858    0.30461   1.00
H2       0.76846    1.05030    0.41306   1.00
H2       0.79590    1.04014    0.45556   1.00
H2       0.79417    1.08796    0.43623   1.00
H2       0.76108    1.12529    0.49447   1.00
H2       0.73678    1.09494    0.52792   1.00
H2       0.78464    1.08403    0.51326   1.00
H2       0.60172    1.03107    0.50592   1.00
H2       0.63032    0.99202    0.48998   1.00
H2       0.63852    1.01255    0.53671   1.00
H2       0.67362    1.11069    0.50235   1.00
H2       0.62808    1.09521    0.51922   1.00
H2       0.67050    1.08007    0.54414   1.00
H2       0.72014    1.02516    0.56240   1.00
H2       0.75208    0.98473    0.56451   1.00
H2       0.76832    1.02783    0.54370   1.00
H2       0.68402    0.96151    0.53940   1.00
H2       0.68568    0.94806    0.49023   1.00
H2       0.72328    0.93374    0.52156   1.00
H2       0.68188    0.96059    0.33906   1.00
H2       0.68309    0.97315    0.28945   1.00
H2       0.69548    1.00812    0.32469   1.00
H2       0.61625    0.94402    0.28692   1.00
H2       0.61074    0.93808    0.33741   1.00
H2       0.57622    0.96515    0.31040   1.00
H2       0.51702    1.05802    0.38949   1.00
H2       0.55935    1.05130    0.41756   1.00
H2       0.55535    1.09231    0.38648   1.00
H2       0.55916    1.03692    0.29096   1.00
H2       0.51712    1.05034    0.31699   1.00
H2       0.55585    1.08391    0.31235   1.00
H2       0.70156    1.06432    0.36258   1.00
H2       0.68881    1.11426    0.36535   1.00
H2       0.67334    1.08186    0.40167   1.00
H2       0.65544    1.11943    0.30289   1.00
H2       0.67122    1.07171    0.29170   1.00
H2       0.62157    1.08480    0.28650   1.00
C4       0.41686    0.64416    0.41259   1.00
C4       0.41613    0.68588    0.41267   1.00
C3       0.41999    0.62136    0.37814   1.00
C3       0.41489    0.70884    0.37819   1.00
C3       0.41369    0.62377    0.44877   1.00
C3       0.41678    0.70614    0.44906   1.00
C2       0.41616    0.55988    0.41472   1.00
C2       0.41384    0.77012    0.41528   1.00
C3       0.41944    0.58038    0.37912   1.00
C3       0.41414    0.74981    0.37943   1.00
C3       0.41392    0.58242    0.44921   1.00
C3       0.41432    0.74738    0.44970   1.00
H1       0.42291    0.63385    0.35133   1.00
H1       0.41424    0.69648    0.35117   1.00
C5       0.41048    0.64480    0.48430   1.00
C5       0.41952    0.68520    0.48462   1.00
H1       0.42152    0.56545    0.35324   1.00
H1       0.41359    0.76490    0.35355   1.00
H1       0.41272    0.56820    0.47547   1.00
H1       0.41230    0.76132    0.47600   1.00
O3       0.40094    0.62539    0.51819   1.00
O3       0.42794    0.70401    0.51929   1.00
Si1      0.35537    0.62253    0.53185   1.00
Si1      0.47348    0.71221    0.53053   1.00
C6       0.36245    0.58962    0.57084   1.00
C6       0.34148    0.66902    0.54895   1.00
C6       0.32452    0.60247    0.49578   1.00
C6       0.50989    0.69807    0.49683   1.00
C6       0.47492    0.76302    0.53689   1.00
C6       0.48207    0.69023    0.57620   1.00
C6       0.38839    0.55306    0.56166   1.00
H2       0.37947    0.60709    0.59136   1.00
C6       0.32694    0.57353    0.59491   1.00
H2       0.36946    0.68142    0.55775   1.00
C6       0.32360    0.69866    0.51918   1.00
C6       0.31476    0.67164    0.58590   1.00
H2       0.34088    0.57669    0.48655   1.00
C6       0.28358    0.58728    0.50934   1.00
C6       0.31553    0.62651    0.45777   1.00
C6       0.51148    0.65429    0.48405   1.00
C6       0.51630    0.72275    0.45889   1.00
H2       0.53665    0.70288    0.51342   1.00
H2       0.47128    0.77449    0.50741   1.00
C6       0.44082    0.78122    0.56128   1.00
C6       0.51358    0.78107    0.55307   1.00
H2       0.47053    0.71125    0.59718   1.00
C6       0.45948    0.65164    0.58459   1.00
C6       0.52539    0.68256    0.58858   1.00
H2       0.41694    0.56154    0.55030   1.00
H2       0.37444    0.53410    0.54014   1.00
H2       0.39377    0.53583    0.58796   1.00
H2       0.33553    0.56892    0.62529   1.00
H2       0.30208    0.59322    0.59494   1.00
H2       0.31674    0.54536    0.58403   1.00
H2       0.32408    0.72828    0.53107   1.00
H2       0.34002    0.69968    0.49202   1.00
H2       0.29329    0.69148    0.51255   1.00
H2       0.32765    0.65638    0.61069   1.00
H2       0.31078    0.70192    0.59521   1.00
H2       0.28586    0.65950    0.58007   1.00
H2       0.26760    0.60986    0.52516   1.00
H2       0.26549    0.57792    0.48473   1.00
H2       0.28630    0.56168    0.52783   1.00
H2       0.29060    0.64598    0.46151   1.00
H2       0.33977    0.64432    0.44806   1.00
H2       0.30844    0.60672    0.43374   1.00
H2       0.49094    0.64812    0.46059   1.00
H2       0.54055    0.64691    0.47315   1.00
H2       0.50531    0.63452    0.50812   1.00
H2       0.54308    0.71375    0.44402   1.00
H2       0.49259    0.71926    0.43808   1.00
H2       0.51960    0.75378    0.46515   1.00
H2       0.44051    0.81298    0.55802   1.00
H2       0.41244    0.77065    0.55130   1.00
H2       0.44352    0.77465    0.59231   1.00
H2       0.53904    0.77084    0.53692   1.00
H2       0.51301    0.81288    0.55034   1.00
H2       0.51765    0.77415    0.58391   1.00
H2       0.46742    0.62844    0.56432   1.00
H2       0.46465    0.64119    0.61426   1.00
H2       0.42833    0.65666    0.58186   1.00
H2       0.52711    0.67456    0.61943   1.00
H2       0.53830    0.65878    0.57171   1.00
H2       0.54350    0.70843    0.58480   1.00
C4       0.41259    0.91686    0.14416   1.00
C4       0.41267    0.91613    0.18588   1.00
C3       0.37814    0.91999    0.12136   1.00
C3       0.37819    0.91489    0.20884   1.00
C3       0.44877    0.91369    0.12377   1.00
C3       0.44906    0.91678    0.20614   1.00
C2       0.41472    0.91616    0.05988   1.00
C2       0.41528    0.91384    0.27012   1.00
C3       0.37912    0.91944    0.08038   1.00
C3       0.37943    0.91414    0.24981   1.00
C3       0.44921    0.91392    0.08242   1.00
C3       0.44970    0.91432    0.24738   1.00
H1       0.35133    0.92291    0.13385   1.00
H1       0.35117    0.91424    0.19648   1.00
C5       0.48430    0.91048    0.14480   1.00
C5       0.48462    0.91952    0.18520   1.00
H1       0.35324    0.92152    0.06545   1.00
H1       0.35355    0.91359    0.26490   1.00
H1       0.47547    0.91272    0.06820   1.00
H1       0.47600    0.91230    0.26132   1.00
O3       0.51819    0.90094    0.12539   1.00
O3       0.51929    0.92794    0.20401   1.00
Si1      0.53185    0.85537    0.12253   1.00
Si1      0.53053    0.97348    0.21221   1.00
C6       0.57084    0.86245    0.08962   1.00
C6       0.54895    0.84148    0.16902   1.00
C6       0.49578    0.82452    0.10247   1.00
C6       0.49683    1.00989    0.19807   1.00
C6       0.53689    0.97492    0.26302   1.00
C6       0.57620    0.98207    0.19023   1.00
C6       0.56166    0.88839    0.05306   1.00
H2       0.59136    0.87947    0.10709   1.00
C6       0.59491    0.82694    0.07353   1.00
H2       0.55775    0.86946    0.18142   1.00
C6       0.51918    0.82360    0.19866   1.00
C6       0.58590    0.81476    0.17164   1.00
H2       0.48655    0.84088    0.07669   1.00
C6       0.50934    0.78358    0.08728   1.00
C6       0.45777    0.81553    0.12651   1.00
C6       0.48405    1.01148    0.15429   1.00
C6       0.45889    1.01630    0.22275   1.00
H2       0.51342    1.03665    0.20288   1.00
H2       0.50741    0.97128    0.27449   1.00
C6       0.56128    0.94082    0.28122   1.00
C6       0.55307    1.01358    0.28107   1.00
H2       0.59718    0.97053    0.21125   1.00
C6       0.58459    0.95948    0.15164   1.00
C6       0.58858    1.02539    0.18256   1.00
H2       0.55030    0.91694    0.06154   1.00
H2       0.54014    0.87444    0.03410   1.00
H2       0.58796    0.89377    0.03583   1.00
H2       0.62529    0.83553    0.06892   1.00
H2       0.59494    0.80208    0.09322   1.00
H2       0.58403    0.81674    0.04536   1.00
H2       0.53107    0.82408    0.22828   1.00
H2       0.49202    0.84002    0.19968   1.00
H2       0.51255    0.79329    0.19148   1.00
H2       0.61069    0.82765    0.15638   1.00
H2       0.59521    0.81078    0.20192   1.00
H2       0.58007    0.78586    0.15950   1.00
H2       0.52516    0.76760    0.10986   1.00
H2       0.48473    0.76549    0.07792   1.00
H2       0.52783    0.78630    0.06168   1.00
H2       0.46151    0.79060    0.14598   1.00
H2       0.44806    0.83977    0.14432   1.00
H2       0.43374    0.80844    0.10672   1.00
H2       0.46059    0.99094    0.14812   1.00
H2       0.47315    1.04055    0.14691   1.00
H2       0.50812    1.00531    0.13452   1.00
H2       0.44402    1.04308    0.21375   1.00
H2       0.43808    0.99259    0.21926   1.00
H2       0.46515    1.01960    0.25378   1.00
H2       0.55802    0.94051    0.31298   1.00
H2       0.55130    0.91244    0.27065   1.00
H2       0.59231    0.94352    0.27465   1.00
H2       0.53692    1.03904    0.27084   1.00
H2       0.55034    1.01301    0.31288   1.00
H2       0.58391    1.01765    0.27415   1.00
H2       0.56432    0.96742    0.12844   1.00
H2       0.61426    0.96465    0.14119   1.00
H2       0.58186    0.92833    0.15666   1.00
H2       0.61943    1.02711    0.17456   1.00
H2       0.57171    1.03830    0.15878   1.00
H2       0.58480    1.04350    0.20843   1.00
C4       0.91259    0.41314    0.68584   1.00
C4       0.91267    0.41387    0.64412   1.00
C3       0.87814    0.41001    0.70864   1.00
C3       0.87819    0.41511    0.62116   1.00
C3       0.94877    0.41631    0.70623   1.00
C3       0.94906    0.41322    0.62386   1.00
C2       0.91472    0.41384    0.77012   1.00
C2       0.91528    0.41616    0.55988   1.00
C3       0.87912    0.41056    0.74962   1.00
C3       0.87943    0.41586    0.58019   1.00
C3       0.94921    0.41608    0.74758   1.00
C3       0.94970    0.41568    0.58262   1.00
H1       0.85133    0.40709    0.69615   1.00
H1       0.85117    0.41576    0.63352   1.00
C5       0.98430    0.41952    0.68520   1.00
C5       0.98462    0.41048    0.64480   1.00
H1       0.85324    0.40848    0.76455   1.00
H1       0.85355    0.41641    0.56510   1.00
H1       0.97547    0.41728    0.76180   1.00
H1       0.97600    0.41770    0.56868   1.00
O3       1.01819    0.42906    0.70461   1.00
O3       1.01929    0.40206    0.62599   1.00
Si1      1.03185    0.47463    0.70747   1.00
Si1      1.03053    0.35652    0.61779   1.00
C6       1.07084    0.46755    0.74038   1.00
C6       1.04895    0.48852    0.66098   1.00
C6       0.99578    0.50548    0.72753   1.00
C6       0.99683    0.32011    0.63193   1.00
C6       1.03689    0.35508    0.56698   1.00
C6       1.07620    0.34793    0.63977   1.00
C6       1.06166    0.44161    0.77694   1.00
H2       1.09136    0.45053    0.72291   1.00
C6       1.09491    0.50306    0.75647   1.00
H2       1.05775    0.46054    0.64858   1.00
C6       1.01918    0.50640    0.63134   1.00
C6       1.08590    0.51524    0.65836   1.00
H2       0.98655    0.48912    0.75331   1.00
C6       1.00934    0.54642    0.74272   1.00
C6       0.95777    0.51447    0.70349   1.00
C6       0.98405    0.31852    0.67571   1.00
C6       0.95889    0.31370    0.60725   1.00
H2       1.01342    0.29335    0.62712   1.00
H2       1.00741    0.35872    0.55551   1.00
C6       1.06128    0.38918    0.54878   1.00
C6       1.05307    0.31642    0.54893   1.00
H2       1.09718    0.35947    0.61875   1.00
C6       1.08459    0.37052    0.67836   1.00
C6       1.08858    0.30461    0.64744   1.00
H2       1.05030    0.41306    0.76846   1.00
H2       1.04014    0.45556    0.79590   1.00
H2       1.08796    0.43623    0.79417   1.00
H2       1.12529    0.49447    0.76108   1.00
H2       1.09494    0.52792    0.73678   1.00
H2       1.08403    0.51326    0.78464   1.00
H2       1.03107    0.50592    0.60172   1.00
H2       0.99202    0.48998    0.63032   1.00
H2       1.01255    0.53671    0.63852   1.00
H2       1.11069    0.50235    0.67362   1.00
H2       1.09521    0.51922    0.62808   1.00
H2       1.08007    0.54414    0.67050   1.00
H2       1.02516    0.56240    0.72014   1.00
H2       0.98473    0.56451    0.75208   1.00
H2       1.02783    0.54370    0.76832   1.00
H2       0.96151    0.53940    0.68402   1.00
H2       0.94806    0.49023    0.68568   1.00
H2       0.93374    0.52156    0.72328   1.00
H2       0.96059    0.33906    0.68188   1.00
H2       0.97315    0.28945    0.68309   1.00
H2       1.00812    0.32469    0.69548   1.00
H2       0.94402    0.28692    0.61625   1.00
H2       0.93808    0.33741    0.61074   1.00
H2       0.96515    0.31040    0.57622   1.00
H2       1.05802    0.38949    0.51702   1.00
H2       1.05130    0.41756    0.55935   1.00
H2       1.09231    0.38648    0.55535   1.00
H2       1.03692    0.29096    0.55916   1.00
H2       1.05034    0.31699    0.51712   1.00
H2       1.08391    0.31235    0.55585   1.00
H2       1.06432    0.36258    0.70156   1.00
H2       1.11426    0.36535    0.68881   1.00
H2       1.08186    0.40167    0.67334   1.00
H2       1.11943    0.30289    0.65544   1.00
H2       1.07171    0.29170    0.67122   1.00
H2       1.08480    0.28650    0.62157   1.00
C4       0.91314    0.68584    0.41259   1.00
C4       0.91387    0.64412    0.41267   1.00
C3       0.91001    0.70864    0.37814   1.00
C3       0.91511    0.62116    0.37819   1.00
C3       0.91631    0.70623    0.44877   1.00
C3       0.91322    0.62386    0.44906   1.00
C2       0.91384    0.77012    0.41472   1.00
C2       0.91616    0.55988    0.41528   1.00
C3       0.91056    0.74962    0.37912   1.00
C3       0.91586    0.58019    0.37943   1.00
C3       0.91608    0.74758    0.44921   1.00
C3       0.91568    0.58262    0.44970   1.00
H1       0.90709    0.69615    0.35133   1.00
H1       0.91576    0.63352    0.35117   1.00
C5       0.91952    0.68520    0.48430   1.00
C5       0.91048    0.64480    0.48462   1.00
H1       0.90848    0.76455    0.35324   1.00
H1       0.91641    0.56510    0.35355   1.00
H1       0.91728    0.76180    0.47547   1.00
H1       0.91770    0.56868    0.47600   1.00
O3       0.92906    0.70461    0.51819   1.00
O3       0.90206    0.62599    0.51929   1.00
Si1      0.97463    0.70747    0.53185   1.00
Si1      0.85652    0.61779    0.53053   1.00
C6       0.96755    0.74038    0.57084   1.00
C6       0.98852    0.66098    0.54895   1.00
C6       1.00548    0.72753    0.49578   1.00
C6       0.82011    0.63193    0.49683   1.00
C6       0.85508    0.56698    0.53689   1.00
C6       0.84793    0.63977    0.57620   1.00
C6       0.94161    0.77694    0.56166   1.00
H2       0.95053    0.72291    0.59136   1.00
C6       1.00306    0.75647    0.59491   1.00
H2       0.96054    0.64858    0.55775   1.00
C6       1.00640    0.63134    0.51918   1.00
C6       1.01524    0.65836    0.58590   1.00
H2       0.98912    0.75331    0.48655   1.00
C6       1.04642    0.74272    0.50934   1.00
C6       1.01447    0.70349    0.45777   1.00
C6       0.81852    0.67571    0.48405   1.00
C6       0.81370    0.60725    0.45889   1.00
H2       0.79335    0.62712    0.51342   1.00
H2       0.85872    0.55551    0.50741   1.00
C6       0.88918    0.54878    0.56128   1.00
C6       0.81642    0.54893    0.55307   1.00
H2       0.85947    0.61875    0.59718   1.00
C6       0.87052    0.67836    0.58459   1.00
C6       0.80461    0.64744    0.58858   1.00
H2       0.91306    0.76846    0.55030   1.00
H2       0.95556    0.79590    0.54014   1.00
H2       0.93623    0.79417    0.58796   1.00
H2       0.99447    0.76108    0.62529   1.00
H2       1.02792    0.73678    0.59494   1.00
H2       1.01326    0.78464    0.58403   1.00
H2       1.00592    0.60172    0.53107   1.00
H2       0.98998    0.63032    0.49202   1.00
H2       1.03671    0.63852    0.51255   1.00
H2       1.00235    0.67362    0.61069   1.00
H2       1.01922    0.62808    0.59521   1.00
H2       1.04414    0.67050    0.58007   1.00
H2       1.06240    0.72014    0.52516   1.00
H2       1.06451    0.75208    0.48473   1.00
H2       1.04370    0.76832    0.52783   1.00
H2       1.03940    0.68402    0.46151   1.00
H2       0.99023    0.68568    0.44806   1.00
H2       1.02156    0.72328    0.43374   1.00
H2       0.83906    0.68188    0.46059   1.00
H2       0.78945    0.68309    0.47315   1.00
H2       0.82469    0.69548    0.50812   1.00
H2       0.78692    0.61625    0.44402   1.00
H2       0.83741    0.61074    0.43808   1.00
H2       0.81040    0.57622    0.46515   1.00
H2       0.88949    0.51702    0.55802   1.00
H2       0.91756    0.55935    0.55130   1.00
H2       0.88648    0.55535    0.59231   1.00
H2       0.79096    0.55916    0.53692   1.00
H2       0.81699    0.51712    0.55034   1.00
H2       0.81235    0.55585    0.58391   1.00
H2       0.86258    0.70156    0.56432   1.00
H2       0.86535    0.68881    0.61426   1.00
H2       0.90167    0.67334    0.58186   1.00
H2       0.80289    0.65544    0.61943   1.00
H2       0.79170    0.67122    0.57171   1.00
H2       0.78650    0.62157    0.58480   1.00
C4       0.64416    0.41259    0.41686   1.00
C4       0.68588    0.41267    0.41613   1.00
C3       0.62136    0.37814    0.41999   1.00
C3       0.70884    0.37819    0.41489   1.00
C3       0.62377    0.44877    0.41369   1.00
C3       0.70614    0.44906    0.41678   1.00
C2       0.55988    0.41472    0.41616   1.00
C2       0.77012    0.41528    0.41384   1.00
C3       0.58038    0.37912    0.41944   1.00
C3       0.74981    0.37943    0.41414   1.00
C3       0.58242    0.44921    0.41392   1.00
C3       0.74738    0.44970    0.41432   1.00
H1       0.63385    0.35133    0.42291   1.00
H1       0.69648    0.35117    0.41424   1.00
C5       0.64480    0.48430    0.41048   1.00
C5       0.68520    0.48462    0.41952   1.00
H1       0.56545    0.35324    0.42152   1.00
H1       0.76490    0.35355    0.41359   1.00
H1       0.56820    0.47547    0.41272   1.00
H1       0.76132    0.47600    0.41230   1.00
O3       0.62539    0.51819    0.40094   1.00
O3       0.70401    0.51929    0.42794   1.00
Si1      0.62253    0.53185    0.35537   1.00
Si1      0.71221    0.53053    0.47348   1.00
C6       0.58962    0.57084    0.36245   1.00
C6       0.66902    0.54895    0.34148   1.00
C6       0.60247    0.49578    0.32452   1.00
C6       0.69807    0.49683    0.50989   1.00
C6       0.76302    0.53689    0.47492   1.00
C6       0.69023    0.57620    0.48207   1.00
C6       0.55306    0.56166    0.38839   1.00
H2       0.60709    0.59136    0.37947   1.00
C6       0.57353    0.59491    0.32694   1.00
H2       0.68142    0.55775    0.36946   1.00
C6       0.69866    0.51918    0.32360   1.00
C6       0.67164    0.58590    0.31476   1.00
H2       0.57669    0.48655    0.34088   1.00
C6       0.58728    0.50934    0.28358   1.00
C6       0.62651    0.45777    0.31553   1.00
C6       0.65429    0.48405    0.51148   1.00
C6       0.72275    0.45889    0.51630   1.00
H2       0.70288    0.51342    0.53665   1.00
H2       0.77449    0.50741    0.47128   1.00
C6       0.78122    0.56128    0.44082   1.00
C6       0.78107    0.55307    0.51358   1.00
H2       0.71125    0.59718    0.47053   1.00
C6       0.65164    0.58459    0.45948   1.00
C6       0.68256    0.58858    0.52539   1.00
H2       0.56154    0.55030    0.41694   1.00
H2       0.53410    0.54014    0.37444   1.00
H2       0.53583    0.58796    0.39377   1.00
H2       0.56892    0.62529    0.33553   1.00
H2       0.59322    0.59494    0.30208   1.00
H2       0.54536    0.58403    0.31674   1.00
H2       0.72828    0.53107    0.32408   1.00
H2       0.69968    0.49202    0.34002   1.00
H2       0.69148    0.51255    0.29329   1.00
H2       0.65638    0.61069    0.32765   1.00
H2       0.70192    0.59521    0.31078   1.00
H2       0.65950    0.58007    0.28586   1.00
H2       0.60986    0.52516    0.26760   1.00
H2       0.57792    0.48473    0.26549   1.00
H2       0.56168    0.52783    0.28630   1.00
H2       0.64598    0.46151    0.29060   1.00
H2       0.64432    0.44806    0.33977   1.00
H2       0.60672    0.43374    0.30844   1.00
H2       0.64812    0.46059    0.49094   1.00
H2       0.64691    0.47315    0.54055   1.00
H2       0.63452    0.50812    0.50531   1.00
H2       0.71375    0.44402    0.54308   1.00
H2       0.71926    0.43808    0.49259   1.00
H2       0.75378    0.46515    0.51960   1.00
H2       0.81298    0.55802    0.44051   1.00
H2       0.77065    0.55130    0.41244   1.00
H2       0.77465    0.59231    0.44352   1.00
H2       0.77084    0.53692    0.53904   1.00
H2       0.81288    0.55034    0.51301   1.00
H2       0.77415    0.58391    0.51765   1.00
H2       0.62844    0.56432    0.46742   1.00
H2       0.64119    0.61426    0.46465   1.00
H2       0.65666    0.58186    0.42833   1.00
H2       0.67456    0.61943    0.52711   1.00
H2       0.65878    0.57171    0.53830   1.00
H2       0.70843    0.58480    0.54350   1.00
C4       1.18584    0.41259    0.41314   1.00
C4       1.14412    0.41267    0.41387   1.00
C3       1.20864    0.37814    0.41001   1.00
C3       1.12116    0.37819    0.41511   1.00
C3       1.20623    0.44877    0.41631   1.00
C3       1.12386    0.44906    0.41322   1.00
C2       1.27012    0.41472    0.41384   1.00
C2       1.05988    0.41528    0.41616   1.00
C3       1.24962    0.37912    0.41056   1.00
C3       1.08019    0.37943    0.41586   1.00
C3       1.24758    0.44921    0.41608   1.00
C3       1.08262    0.44970    0.41568   1.00
H1       1.19615    0.35133    0.40709   1.00
H1       1.13352    0.35117    0.41576   1.00
C5       1.18520    0.48430    0.41952   1.00
C5       1.14480    0.48462    0.41048   1.00
H1       1.26455    0.35324    0.40848   1.00
H1       1.06510    0.35355    0.41641   1.00
H1       1.26180    0.47547    0.41728   1.00
H1       1.06868    0.47600    0.41770   1.00
O3       1.20461    0.51819    0.42906   1.00
O3       1.12599    0.51929    0.40206   1.00
Si1      1.20747    0.53185    0.47463   1.00
Si1      1.11779    0.53053    0.35652   1.00
C6       1.24038    0.57084    0.46755   1.00
C6       1.16098    0.54895    0.48852   1.00
C6       1.22753    0.49578    0.50548   1.00
C6       1.13193    0.49683    0.32011   1.00
C6       1.06698    0.53689    0.35508   1.00
C6       1.13977    0.57620    0.34793   1.00
C6       1.27694    0.56166    0.44161   1.00
H2       1.22291    0.59136    0.45053   1.00
C6       1.25647    0.59491    0.50306   1.00
H2       1.14858    0.55775    0.46054   1.00
C6       1.13134    0.51918    0.50640   1.00
C6       1.15836    0.58590    0.51524   1.00
H2       1.25331    0.48655    0.48912   1.00
C6       1.24272    0.50934    0.54642   1.00
C6       1.20349    0.45777    0.51447   1.00
C6       1.17571    0.48405    0.31852   1.00
C6       1.10725    0.45889    0.31370   1.00
H2       1.12712    0.51342    0.29335   1.00
H2       1.05551    0.50741    0.35872   1.00
C6       1.04878    0.56128    0.38918   1.00
C6       1.04893    0.55307    0.31642   1.00
H2       1.11875    0.59718    0.35947   1.00
C6       1.17836    0.58459    0.37052   1.00
C6       1.14744    0.58858    0.30461   1.00
H2       1.26846    0.55030    0.41306   1.00
H2       1.29590    0.54014    0.45556   1.00
H2       1.29417    0.58796    0.43623   1.00
H2       1.26108    0.62529    0.49447   1.00
H2       1.23678    0.59494    0.52792   1.00
H2       1.28464    0.58403    0.51326   1.00
H2       1.10172    0.53107    0.50592   1.00
H2       1.13032    0.49202    0.48998   1.00
H2       1.13852    0.51255    0.53671   1.00
H2       1.17362    0.61069    0.50235   1.00
H2       1.12808    0.59521    0.51922   1.00
H2       1.17050    0.58007    0.54414   1.00
H2       1.22014    0.52516    0.56240   1.00
H2       1.25208    0.48473    0.56451   1.00
H2       1.26832    0.52783    0.54370   1.00
H2       1.18402    0.46151    0.53940   1.00
H2       1.18568    0.44806    0.49023   1.00
H2       1.22328    0.43374    0.52156   1.00
H2       1.18188    0.46059    0.33906   1.00
H2       1.18309    0.47315    0.28945   1.00
H2       1.19548    0.50812    0.32469   1.00
H2       1.11625    0.44402    0.28692   1.00
H2       1.11074    0.43808    0.33741   1.00
H2       1.07622    0.46515    0.31040   1.00
H2       1.01702    0.55802    0.38949   1.00
H2       1.05935    0.55130    0.41756   1.00
H2       1.05535    0.59231    0.38648   1.00
H2       1.05916    0.53692    0.29096   1.00
H2       1.01712    0.55034    0.31699   1.00
H2       1.05585    0.58391    0.31235   1.00
H2       1.20156    0.56432    0.36258   1.00
H2       1.18881    0.61426    0.36535   1.00
H2       1.17334    0.58186    0.40167   1.00
H2       1.15544    0.61943    0.30289   1.00
H2       1.17122    0.57171    0.29170   1.00
H2       1.12157    0.58480    0.28650   1.00
C4       0.91686    0.14416    0.41259   1.00
C4       0.91613    0.18588    0.41267   1.00
C3       0.91999    0.12136    0.37814   1.00
C3       0.91489    0.20884    0.37819   1.00
C3       0.91369    0.12377    0.44877   1.00
C3       0.91678    0.20614    0.44906   1.00
C2       0.91616    0.05988    0.41472   1.00
C2       0.91384    0.27012    0.41528   1.00
C3       0.91944    0.08038    0.37912   1.00
C3       0.91414    0.24981    0.37943   1.00
C3       0.91392    0.08242    0.44921   1.00
C3       0.91432    0.24738    0.44970   1.00
H1       0.92291    0.13385    0.35133   1.00
H1       0.91424    0.19648    0.35117   1.00
C5       0.91048    0.14480    0.48430   1.00
C5       0.91952    0.18520    0.48462   1.00
H1       0.92152    0.06545    0.35324   1.00
H1       0.91359    0.26490    0.35355   1.00
H1       0.91272    0.06820    0.47547   1.00
H1       0.91230    0.26132    0.47600   1.00
O3       0.90094    0.12539    0.51819   1.00
O3       0.92794    0.20401    0.51929   1.00
Si1      0.85537    0.12253    0.53185   1.00
Si1      0.97348    0.21221    0.53053   1.00
C6       0.86245    0.08962    0.57084   1.00
C6       0.84148    0.16902    0.54895   1.00
C6       0.82452    0.10247    0.49578   1.00
C6       1.00989    0.19807    0.49683   1.00
C6       0.97492    0.26302    0.53689   1.00
C6       0.98207    0.19023    0.57620   1.00
C6       0.88839    0.05306    0.56166   1.00
H2       0.87947    0.10709    0.59136   1.00
C6       0.82694    0.07353    0.59491   1.00
H2       0.86946    0.18142    0.55775   1.00
C6       0.82360    0.19866    0.51918   1.00
C6       0.81476    0.17164    0.58590   1.00
H2       0.84088    0.07669    0.48655   1.00
C6       0.78358    0.08728    0.50934   1.00
C6       0.81553    0.12651    0.45777   1.00
C6       1.01148    0.15429    0.48405   1.00
C6       1.01630    0.22275    0.45889   1.00
H2       1.03665    0.20288    0.51342   1.00
H2       0.97128    0.27449    0.50741   1.00
C6       0.94082    0.28122    0.56128   1.00
C6       1.01358    0.28107    0.55307   1.00
H2       0.97053    0.21125    0.59718   1.00
C6       0.95948    0.15164    0.58459   1.00
C6       1.02539    0.18256    0.58858   1.00
H2       0.91694    0.06154    0.55030   1.00
H2       0.87444    0.03410    0.54014   1.00
H2       0.89377    0.03583    0.58796   1.00
H2       0.83553    0.06892    0.62529   1.00
H2       0.80208    0.09322    0.59494   1.00
H2       0.81674    0.04536    0.58403   1.00
H2       0.82408    0.22828    0.53107   1.00
H2       0.84002    0.19968    0.49202   1.00
H2       0.79329    0.19148    0.51255   1.00
H2       0.82765    0.15638    0.61069   1.00
H2       0.81078    0.20192    0.59521   1.00
H2       0.78586    0.15950    0.58007   1.00
H2       0.76760    0.10986    0.52516   1.00
H2       0.76549    0.07792    0.48473   1.00
H2       0.78630    0.06168    0.52783   1.00
H2       0.79060    0.14598    0.46151   1.00
H2       0.83977    0.14432    0.44806   1.00
H2       0.80844    0.10672    0.43374   1.00
H2       0.99094    0.14812    0.46059   1.00
H2       1.04055    0.14691    0.47315   1.00
H2       1.00531    0.13452    0.50812   1.00
H2       1.04308    0.21375    0.44402   1.00
H2       0.99259    0.21926    0.43808   1.00
H2       1.01960    0.25378    0.46515   1.00
H2       0.94051    0.31298    0.55802   1.00
H2       0.91244    0.27065    0.55130   1.00
H2       0.94352    0.27465    0.59231   1.00
H2       1.03904    0.27084    0.53692   1.00
H2       1.01301    0.31288    0.55034   1.00
H2       1.01765    0.27415    0.58391   1.00
H2       0.96742    0.12844    0.56432   1.00
H2       0.96465    0.14119    0.61426   1.00
H2       0.92833    0.15666    0.58186   1.00
H2       1.02711    0.17456    0.61943   1.00
H2       1.03830    0.15878    0.57171   1.00
H2       1.04350    0.20843    0.58480   1.00
C4       0.91259    0.41686    0.14416   1.00
C4       0.91267    0.41613    0.18588   1.00
C3       0.87814    0.41999    0.12136   1.00
C3       0.87819    0.41489    0.20884   1.00
C3       0.94877    0.41369    0.12377   1.00
C3       0.94906    0.41678    0.20614   1.00
C2       0.91472    0.41616    0.05988   1.00
C2       0.91528    0.41384    0.27012   1.00
C3       0.87912    0.41944    0.08038   1.00
C3       0.87943    0.41414    0.24981   1.00
C3       0.94921    0.41392    0.08242   1.00
C3       0.94970    0.41432    0.24738   1.00
H1       0.85133    0.42291    0.13385   1.00
H1       0.85117    0.41424    0.19648   1.00
C5       0.98430    0.41048    0.14480   1.00
C5       0.98462    0.41952    0.18520   1.00
H1       0.85324    0.42152    0.06545   1.00
H1       0.85355    0.41359    0.26490   1.00
H1       0.97547    0.41272    0.06820   1.00
H1       0.97600    0.41230    0.26132   1.00
O3       1.01819    0.40094    0.12539   1.00
O3       1.01929    0.42794    0.20401   1.00
Si1      1.03185    0.35537    0.12253   1.00
Si1      1.03053    0.47348    0.21221   1.00
C6       1.07084    0.36245    0.08962   1.00
C6       1.04895    0.34148    0.16902   1.00
C6       0.99578    0.32452    0.10247   1.00
C6       0.99683    0.50989    0.19807   1.00
C6       1.03689    0.47492    0.26302   1.00
C6       1.07620    0.48207    0.19023   1.00
C6       1.06166    0.38839    0.05306   1.00
H2       1.09136    0.37947    0.10709   1.00
C6       1.09491    0.32694    0.07353   1.00
H2       1.05775    0.36946    0.18142   1.00
C6       1.01918    0.32360    0.19866   1.00
C6       1.08590    0.31476    0.17164   1.00
H2       0.98655    0.34088    0.07669   1.00
C6       1.00934    0.28358    0.08728   1.00
C6       0.95777    0.31553    0.12651   1.00
C6       0.98405    0.51148    0.15429   1.00
C6       0.95889    0.51630    0.22275   1.00
H2       1.01342    0.53665    0.20288   1.00
H2       1.00741    0.47128    0.27449   1.00
C6       1.06128    0.44082    0.28122   1.00
C6       1.05307    0.51358    0.28107   1.00
H2       1.09718    0.47053    0.21125   1.00
C6       1.08459    0.45948    0.15164   1.00
C6       1.08858    0.52539    0.18256   1.00
H2       1.05030    0.41694    0.06154   1.00
H2       1.04014    0.37444    0.03410   1.00
H2       1.08796    0.39377    0.03583   1.00
H2       1.12529    0.33553    0.06892   1.00
H2       1.09494    0.30208    0.09322   1.00
H2       1.08403    0.31674    0.04536   1.00
H2       1.03107    0.32408    0.22828   1.00
H2       0.99202    0.34002    0.19968   1.00
H2       1.01255    0.29329    0.19148   1.00
H2       1.11069    0.32765    0.15638   1.00
H2       1.09521    0.31078    0.20192   1.00
H2       1.08007    0.28586    0.15950   1.00
H2       1.02516    0.26760    0.10986   1.00
H2       0.98473    0.26549    0.07792   1.00
H2       1.02783    0.28630    0.06168   1.00
H2       0.96151    0.29060    0.14598   1.00
H2       0.94806    0.33977    0.14432   1.00
H2       0.93374    0.30844    0.10672   1.00
H2       0.96059    0.49094    0.14812   1.00
H2       0.97315    0.54055    0.14691   1.00
H2       1.00812    0.50531    0.13452   1.00
H2       0.94402    0.54308    0.21375   1.00
H2       0.93808    0.49259    0.21926   1.00
H2       0.96515    0.51960    0.25378   1.00
H2       1.05802    0.44051    0.31298   1.00
H2       1.05130    0.41244    0.27065   1.00
H2       1.09231    0.44352    0.27465   1.00
H2       1.03692    0.53904    0.27084   1.00
H2       1.05034    0.51301    0.31288   1.00
H2       1.08391    0.51765    0.27415   1.00
H2       1.06432    0.46742    0.12844   1.00
H2       1.11426    0.46465    0.14119   1.00
H2       1.08186    0.42833    0.15666   1.00
H2       1.11943    0.52711    0.17456   1.00
H2       1.07171    0.53830    0.15878   1.00
H2       1.08480    0.54350    0.20843   1.00
