data_IRMOF10_SG202_interpen_Ligand2cp_label_m.

_audit_creation_method             'generated by an auxiliary program of Tobunporous'

_symmetry_space_group_name_H-M     'P 1'
_symmetry_Int_Tables_number        1
_symmetry_cell_setting             triclinic

_cell_length_a                    34.2800
_cell_length_b                    34.2800
_cell_length_c                    34.2800
_cell_angle_alpha                 90.0000
_cell_angle_beta                  90.0000
_cell_angle_gamma                 90.0000

loop_
_atom_site_label
_atom_site_fract_x
_atom_site_fract_y
_atom_site_fract_z
_atom_site_occupancy
O1       0.75000    0.75000    0.75000   1.00
Zn1      0.71720    0.78280    0.78280   1.00
Zn1      0.78280    0.71720    0.78280   1.00
Zn1      0.78280    0.78280    0.71720   1.00
Zn1      0.71720    0.71720    0.71720   1.00
O2       0.72650    0.77350    0.83820   1.00
O2       0.72650    0.83820    0.77350   1.00
O2       0.66180    0.77350    0.77350   1.00
O2       0.77350    0.72650    0.83820   1.00
O2       0.83820    0.72650    0.77350   1.00
O2       0.77350    0.66180    0.77350   1.00
O2       0.77350    0.83820    0.72650   1.00
O2       0.83820    0.77350    0.72650   1.00
O2       0.77350    0.77350    0.66180   1.00
O2       0.66180    0.72650    0.72650   1.00
O2       0.72650    0.66180    0.72650   1.00
O2       0.72650    0.72650    0.66180   1.00
C1       0.75000    0.75000    0.85520   1.00
C1       0.75000    0.85520    0.75000   1.00
C1       0.64480    0.75000    0.75000   1.00
C1       0.85520    0.75000    0.75000   1.00
C1       0.75000    0.64480    0.75000   1.00
C1       0.75000    0.75000    0.64480   1.00
O1       0.25000    0.25000    0.75000   1.00
Zn1      0.21720    0.28280    0.78280   1.00
Zn1      0.28280    0.21720    0.78280   1.00
Zn1      0.28280    0.28280    0.71720   1.00
Zn1      0.21720    0.21720    0.71720   1.00
O2       0.22650    0.27350    0.83820   1.00
O2       0.22650    0.33820    0.77350   1.00
O2       0.16180    0.27350    0.77350   1.00
O2       0.27350    0.22650    0.83820   1.00
O2       0.33820    0.22650    0.77350   1.00
O2       0.27350    0.16180    0.77350   1.00
O2       0.27350    0.33820    0.72650   1.00
O2       0.33820    0.27350    0.72650   1.00
O2       0.27350    0.27350    0.66180   1.00
O2       0.16180    0.22650    0.72650   1.00
O2       0.22650    0.16180    0.72650   1.00
O2       0.22650    0.22650    0.66180   1.00
C1       0.25000    0.25000    0.85520   1.00
C1       0.25000    0.35520    0.75000   1.00
C1       0.14480    0.25000    0.75000   1.00
C1       0.35520    0.25000    0.75000   1.00
C1       0.25000    0.14480    0.75000   1.00
C1       0.25000    0.25000    0.64480   1.00
O1       0.25000    0.75000    0.25000   1.00
Zn1      0.21720    0.78280    0.28280   1.00
Zn1      0.28280    0.71720    0.28280   1.00
Zn1      0.28280    0.78280    0.21720   1.00
Zn1      0.21720    0.71720    0.21720   1.00
O2       0.22650    0.77350    0.33820   1.00
O2       0.22650    0.83820    0.27350   1.00
O2       0.16180    0.77350    0.27350   1.00
O2       0.27350    0.72650    0.33820   1.00
O2       0.33820    0.72650    0.27350   1.00
O2       0.27350    0.66180    0.27350   1.00
O2       0.27350    0.83820    0.22650   1.00
O2       0.33820    0.77350    0.22650   1.00
O2       0.27350    0.77350    0.16180   1.00
O2       0.16180    0.72650    0.22650   1.00
O2       0.22650    0.66180    0.22650   1.00
O2       0.22650    0.72650    0.16180   1.00
C1       0.25000    0.75000    0.35520   1.00
C1       0.25000    0.85520    0.25000   1.00
C1       0.14480    0.75000    0.25000   1.00
C1       0.35520    0.75000    0.25000   1.00
C1       0.25000    0.64480    0.25000   1.00
C1       0.25000    0.75000    0.14480   1.00
O1       0.75000    0.25000    0.25000   1.00
Zn1      0.71720    0.28280    0.28280   1.00
Zn1      0.78280    0.21720    0.28280   1.00
Zn1      0.78280    0.28280    0.21720   1.00
Zn1      0.71720    0.21720    0.21720   1.00
O2       0.72650    0.27350    0.33820   1.00
O2       0.72650    0.33820    0.27350   1.00
O2       0.66180    0.27350    0.27350   1.00
O2       0.77350    0.22650    0.33820   1.00
O2       0.83820    0.22650    0.27350   1.00
O2       0.77350    0.16180    0.27350   1.00
O2       0.77350    0.33820    0.22650   1.00
O2       0.83820    0.27350    0.22650   1.00
O2       0.77350    0.27350    0.16180   1.00
O2       0.66180    0.22650    0.22650   1.00
O2       0.72650    0.16180    0.22650   1.00
O2       0.72650    0.22650    0.16180   1.00
C1       0.75000    0.25000    0.35520   1.00
C1       0.75000    0.35520    0.25000   1.00
C1       0.64480    0.25000    0.25000   1.00
C1       0.85520    0.25000    0.25000   1.00
C1       0.75000    0.14480    0.25000   1.00
C1       0.75000    0.25000    0.14480   1.00
O1       0.25000    0.25000    0.25000   1.00
Zn1      0.28280    0.21720    0.21720   1.00
Zn1      0.21720    0.28280    0.21720   1.00
Zn1      0.21720    0.21720    0.28280   1.00
Zn1      0.28280    0.28280    0.28280   1.00
O2       0.27350    0.22650    0.16180   1.00
O2       0.27350    0.16180    0.22650   1.00
O2       0.33820    0.22650    0.22650   1.00
O2       0.22650    0.27350    0.16180   1.00
O2       0.16180    0.27350    0.22650   1.00
O2       0.22650    0.33820    0.22650   1.00
O2       0.22650    0.16180    0.27350   1.00
O2       0.16180    0.22650    0.27350   1.00
O2       0.22650    0.22650    0.33820   1.00
O2       0.33820    0.27350    0.27350   1.00
O2       0.27350    0.33820    0.27350   1.00
O2       0.27350    0.27350    0.33820   1.00
C1       0.25000    0.25000    0.14480   1.00
C1       0.25000    0.14480    0.25000   1.00
C1       0.35520    0.25000    0.25000   1.00
C1       0.14480    0.25000    0.25000   1.00
C1       0.25000    0.35520    0.25000   1.00
C1       0.25000    0.25000    0.35520   1.00
O1       0.75000    0.75000    0.25000   1.00
Zn1      0.78280    0.71720    0.21720   1.00
Zn1      0.71720    0.78280    0.21720   1.00
Zn1      0.71720    0.71720    0.28280   1.00
Zn1      0.78280    0.78280    0.28280   1.00
O2       0.77350    0.72650    0.16180   1.00
O2       0.77350    0.66180    0.22650   1.00
O2       0.83820    0.72650    0.22650   1.00
O2       0.72650    0.77350    0.16180   1.00
O2       0.66180    0.77350    0.22650   1.00
O2       0.72650    0.83820    0.22650   1.00
O2       0.72650    0.66180    0.27350   1.00
O2       0.66180    0.72650    0.27350   1.00
O2       0.72650    0.72650    0.33820   1.00
O2       0.83820    0.77350    0.27350   1.00
O2       0.77350    0.83820    0.27350   1.00
O2       0.77350    0.77350    0.33820   1.00
C1       0.75000    0.75000    0.14480   1.00
C1       0.75000    0.64480    0.25000   1.00
C1       0.85520    0.75000    0.25000   1.00
C1       0.64480    0.75000    0.25000   1.00
C1       0.75000    0.85520    0.25000   1.00
C1       0.75000    0.75000    0.35520   1.00
O1       0.75000    0.25000    0.75000   1.00
Zn1      0.78280    0.21720    0.71720   1.00
Zn1      0.71720    0.28280    0.71720   1.00
Zn1      0.71720    0.21720    0.78280   1.00
Zn1      0.78280    0.28280    0.78280   1.00
O2       0.77350    0.22650    0.66180   1.00
O2       0.77350    0.16180    0.72650   1.00
O2       0.83820    0.22650    0.72650   1.00
O2       0.72650    0.27350    0.66180   1.00
O2       0.66180    0.27350    0.72650   1.00
O2       0.72650    0.33820    0.72650   1.00
O2       0.72650    0.16180    0.77350   1.00
O2       0.66180    0.22650    0.77350   1.00
O2       0.72650    0.22650    0.83820   1.00
O2       0.83820    0.27350    0.77350   1.00
O2       0.77350    0.33820    0.77350   1.00
O2       0.77350    0.27350    0.83820   1.00
C1       0.75000    0.25000    0.64480   1.00
C1       0.75000    0.14480    0.75000   1.00
C1       0.85520    0.25000    0.75000   1.00
C1       0.64480    0.25000    0.75000   1.00
C1       0.75000    0.35520    0.75000   1.00
C1       0.75000    0.25000    0.85520   1.00
O1       0.25000    0.75000    0.75000   1.00
Zn1      0.28280    0.71720    0.71720   1.00
Zn1      0.21720    0.78280    0.71720   1.00
Zn1      0.21720    0.71720    0.78280   1.00
Zn1      0.28280    0.78280    0.78280   1.00
O2       0.27350    0.72650    0.66180   1.00
O2       0.27350    0.66180    0.72650   1.00
O2       0.33820    0.72650    0.72650   1.00
O2       0.22650    0.77350    0.66180   1.00
O2       0.16180    0.77350    0.72650   1.00
O2       0.22650    0.83820    0.72650   1.00
O2       0.22650    0.66180    0.77350   1.00
O2       0.16180    0.72650    0.77350   1.00
O2       0.22650    0.72650    0.83820   1.00
O2       0.33820    0.77350    0.77350   1.00
O2       0.27350    0.83820    0.77350   1.00
O2       0.27350    0.77350    0.83820   1.00
C1       0.25000    0.75000    0.64480   1.00
C1       0.25000    0.64480    0.75000   1.00
C1       0.35520    0.75000    0.75000   1.00
C1       0.14480    0.75000    0.75000   1.00
C1       0.25000    0.85520    0.75000   1.00
C1       0.25000    0.75000    0.85520   1.00
O1       0.91500    0.91500    0.91500   1.00
Zn1      0.88220    0.94780    0.94780   1.00
Zn1      0.94780    0.88220    0.94780   1.00
Zn1      0.94780    0.94780    0.88220   1.00
Zn1      0.88220    0.88220    0.88220   1.00
O2       0.89150    0.93850    1.00320   1.00
O2       0.89150    1.00320    0.93850   1.00
O2       0.82680    0.93850    0.93850   1.00
O2       0.93850    0.89150    1.00320   1.00
O2       1.00320    0.89150    0.93850   1.00
O2       0.93850    0.82680    0.93850   1.00
O2       0.93850    1.00320    0.89150   1.00
O2       1.00320    0.93850    0.89150   1.00
O2       0.93850    0.93850    0.82680   1.00
O2       0.82680    0.89150    0.89150   1.00
O2       0.89150    0.82680    0.89150   1.00
O2       0.89150    0.89150    0.82680   1.00
C1       0.91500    0.91500    1.02020   1.00
C1       0.91500    1.02020    0.91500   1.00
C1       0.80980    0.91500    0.91500   1.00
C1       1.02020    0.91500    0.91500   1.00
C1       0.91500    0.80980    0.91500   1.00
C1       0.91500    0.91500    0.80980   1.00
O1       0.41500    0.41500    0.91500   1.00
Zn1      0.38220    0.44780    0.94780   1.00
Zn1      0.44780    0.38220    0.94780   1.00
Zn1      0.44780    0.44780    0.88220   1.00
Zn1      0.38220    0.38220    0.88220   1.00
O2       0.39150    0.43850    1.00320   1.00
O2       0.39150    0.50320    0.93850   1.00
O2       0.32680    0.43850    0.93850   1.00
O2       0.43850    0.39150    1.00320   1.00
O2       0.50320    0.39150    0.93850   1.00
O2       0.43850    0.32680    0.93850   1.00
O2       0.43850    0.50320    0.89150   1.00
O2       0.50320    0.43850    0.89150   1.00
O2       0.43850    0.43850    0.82680   1.00
O2       0.32680    0.39150    0.89150   1.00
O2       0.39150    0.32680    0.89150   1.00
O2       0.39150    0.39150    0.82680   1.00
C1       0.41500    0.41500    1.02020   1.00
C1       0.41500    0.52020    0.91500   1.00
C1       0.30980    0.41500    0.91500   1.00
C1       0.52020    0.41500    0.91500   1.00
C1       0.41500    0.30980    0.91500   1.00
C1       0.41500    0.41500    0.80980   1.00
O1       0.41500    0.91500    0.41500   1.00
Zn1      0.38220    0.94780    0.44780   1.00
Zn1      0.44780    0.88220    0.44780   1.00
Zn1      0.44780    0.94780    0.38220   1.00
Zn1      0.38220    0.88220    0.38220   1.00
O2       0.39150    0.93850    0.50320   1.00
O2       0.39150    1.00320    0.43850   1.00
O2       0.32680    0.93850    0.43850   1.00
O2       0.43850    0.89150    0.50320   1.00
O2       0.50320    0.89150    0.43850   1.00
O2       0.43850    0.82680    0.43850   1.00
O2       0.43850    1.00320    0.39150   1.00
O2       0.50320    0.93850    0.39150   1.00
O2       0.43850    0.93850    0.32680   1.00
O2       0.32680    0.89150    0.39150   1.00
O2       0.39150    0.82680    0.39150   1.00
O2       0.39150    0.89150    0.32680   1.00
C1       0.41500    0.91500    0.52020   1.00
C1       0.41500    1.02020    0.41500   1.00
C1       0.30980    0.91500    0.41500   1.00
C1       0.52020    0.91500    0.41500   1.00
C1       0.41500    0.80980    0.41500   1.00
C1       0.41500    0.91500    0.30980   1.00
O1       0.91500    0.41500    0.41500   1.00
Zn1      0.88220    0.44780    0.44780   1.00
Zn1      0.94780    0.38220    0.44780   1.00
Zn1      0.94780    0.44780    0.38220   1.00
Zn1      0.88220    0.38220    0.38220   1.00
O2       0.89150    0.43850    0.50320   1.00
O2       0.89150    0.50320    0.43850   1.00
O2       0.82680    0.43850    0.43850   1.00
O2       0.93850    0.39150    0.50320   1.00
O2       1.00320    0.39150    0.43850   1.00
O2       0.93850    0.32680    0.43850   1.00
O2       0.93850    0.50320    0.39150   1.00
O2       1.00320    0.43850    0.39150   1.00
O2       0.93850    0.43850    0.32680   1.00
O2       0.82680    0.39150    0.39150   1.00
O2       0.89150    0.32680    0.39150   1.00
O2       0.89150    0.39150    0.32680   1.00
C1       0.91500    0.41500    0.52020   1.00
C1       0.91500    0.52020    0.41500   1.00
C1       0.80980    0.41500    0.41500   1.00
C1       1.02020    0.41500    0.41500   1.00
C1       0.91500    0.30980    0.41500   1.00
C1       0.91500    0.41500    0.30980   1.00
O1       0.41500    0.41500    0.41500   1.00
Zn1      0.44780    0.38220    0.38220   1.00
Zn1      0.38220    0.44780    0.38220   1.00
Zn1      0.38220    0.38220    0.44780   1.00
Zn1      0.44780    0.44780    0.44780   1.00
O2       0.43850    0.39150    0.32680   1.00
O2       0.43850    0.32680    0.39150   1.00
O2       0.50320    0.39150    0.39150   1.00
O2       0.39150    0.43850    0.32680   1.00
O2       0.32680    0.43850    0.39150   1.00
O2       0.39150    0.50320    0.39150   1.00
O2       0.39150    0.32680    0.43850   1.00
O2       0.32680    0.39150    0.43850   1.00
O2       0.39150    0.39150    0.50320   1.00
O2       0.50320    0.43850    0.43850   1.00
O2       0.43850    0.50320    0.43850   1.00
O2       0.43850    0.43850    0.50320   1.00
C1       0.41500    0.41500    0.30980   1.00
C1       0.41500    0.30980    0.41500   1.00
C1       0.52020    0.41500    0.41500   1.00
C1       0.30980    0.41500    0.41500   1.00
C1       0.41500    0.52020    0.41500   1.00
C1       0.41500    0.41500    0.52020   1.00
O1       0.91500    0.91500    0.41500   1.00
Zn1      0.94780    0.88220    0.38220   1.00
Zn1      0.88220    0.94780    0.38220   1.00
Zn1      0.88220    0.88220    0.44780   1.00
Zn1      0.94780    0.94780    0.44780   1.00
O2       0.93850    0.89150    0.32680   1.00
O2       0.93850    0.82680    0.39150   1.00
O2       1.00320    0.89150    0.39150   1.00
O2       0.89150    0.93850    0.32680   1.00
O2       0.82680    0.93850    0.39150   1.00
O2       0.89150    1.00320    0.39150   1.00
O2       0.89150    0.82680    0.43850   1.00
O2       0.82680    0.89150    0.43850   1.00
O2       0.89150    0.89150    0.50320   1.00
O2       1.00320    0.93850    0.43850   1.00
O2       0.93850    1.00320    0.43850   1.00
O2       0.93850    0.93850    0.50320   1.00
C1       0.91500    0.91500    0.30980   1.00
C1       0.91500    0.80980    0.41500   1.00
C1       1.02020    0.91500    0.41500   1.00
C1       0.80980    0.91500    0.41500   1.00
C1       0.91500    1.02020    0.41500   1.00
C1       0.91500    0.91500    0.52020   1.00
O1       0.91500    0.41500    0.91500   1.00
Zn1      0.94780    0.38220    0.88220   1.00
Zn1      0.88220    0.44780    0.88220   1.00
Zn1      0.88220    0.38220    0.94780   1.00
Zn1      0.94780    0.44780    0.94780   1.00
O2       0.93850    0.39150    0.82680   1.00
O2       0.93850    0.32680    0.89150   1.00
O2       1.00320    0.39150    0.89150   1.00
O2       0.89150    0.43850    0.82680   1.00
O2       0.82680    0.43850    0.89150   1.00
O2       0.89150    0.50320    0.89150   1.00
O2       0.89150    0.32680    0.93850   1.00
O2       0.82680    0.39150    0.93850   1.00
O2       0.89150    0.39150    1.00320   1.00
O2       1.00320    0.43850    0.93850   1.00
O2       0.93850    0.50320    0.93850   1.00
O2       0.93850    0.43850    1.00320   1.00
C1       0.91500    0.41500    0.80980   1.00
C1       0.91500    0.30980    0.91500   1.00
C1       1.02020    0.41500    0.91500   1.00
C1       0.80980    0.41500    0.91500   1.00
C1       0.91500    0.52020    0.91500   1.00
C1       0.91500    0.41500    1.02020   1.00
O1       0.41500    0.91500    0.91500   1.00
Zn1      0.44780    0.88220    0.88220   1.00
Zn1      0.38220    0.94780    0.88220   1.00
Zn1      0.38220    0.88220    0.94780   1.00
Zn1      0.44780    0.94780    0.94780   1.00
O2       0.43850    0.89150    0.82680   1.00
O2       0.43850    0.82680    0.89150   1.00
O2       0.50320    0.89150    0.89150   1.00
O2       0.39150    0.93850    0.82680   1.00
O2       0.32680    0.93850    0.89150   1.00
O2       0.39150    1.00320    0.89150   1.00
O2       0.39150    0.82680    0.93850   1.00
O2       0.32680    0.89150    0.93850   1.00
O2       0.39150    0.89150    1.00320   1.00
O2       0.50320    0.93850    0.93850   1.00
O2       0.43850    1.00320    0.93850   1.00
O2       0.43850    0.93850    1.00320   1.00
C1       0.41500    0.91500    0.80980   1.00
C1       0.41500    0.80980    0.91500   1.00
C1       0.52020    0.91500    0.91500   1.00
C1       0.30980    0.91500    0.91500   1.00
C1       0.41500    1.02020    0.91500   1.00
C1       0.41500    0.91500    1.02020   1.00
C2       0.75000    0.75000    0.89720   1.00
C3a      0.77470    0.72530    0.91780   1.00
C3a      0.72530    0.77470    0.91780   1.00
H1       0.79188    0.70813    0.90380   1.00
H1       0.70812    0.79187    0.90380   1.00
C3a      0.77495    0.72505    0.95870   1.00
C3a      0.72505    0.77495    0.95870   1.00
H11      0.79217    0.70783    0.97250   1.00
H12      0.70783    0.79217    0.97250   1.00
C4       0.75000    0.75000    0.97940   1.00
C4       0.75000    0.75000    0.02060   1.00
C3a      0.72505    0.77495    0.04130   1.00
C3a      0.77495    0.72505    0.04130   1.00
H13      0.70783    0.79217    0.02750   1.00
H14      0.79217    0.70783    0.02750   1.00
C3a      0.72530    0.77470    0.08220   1.00
C3a      0.77470    0.72530    0.08220   1.00
H1       0.70812    0.79187    0.09620   1.00
H1       0.79188    0.70813    0.09620   1.00
C2       0.75000    0.75000    0.10280   1.00
C2       0.75000    0.89720    0.75000   1.00
C3a      0.72530    0.91780    0.77470   1.00
C3a      0.77470    0.91780    0.72530   1.00
H1       0.70813    0.90380    0.79188   1.00
H1       0.79187    0.90380    0.70812   1.00
C3a      0.72505    0.95870    0.77495   1.00
C3a      0.77495    0.95870    0.72505   1.00
H11      0.70783    0.97250    0.79217   1.00
H12      0.79217    0.97250    0.70783   1.00
C4       0.75000    0.97940    0.75000   1.00
C4       0.75000    0.02060    0.75000   1.00
C3a      0.77495    0.04130    0.72505   1.00
C3a      0.72505    0.04130    0.77495   1.00
H13      0.79217    0.02750    0.70783   1.00
H14      0.70783    0.02750    0.79217   1.00
C3a      0.77470    0.08220    0.72530   1.00
C3a      0.72530    0.08220    0.77470   1.00
H1       0.79187    0.09620    0.70812   1.00
H1       0.70813    0.09620    0.79188   1.00
C2       0.75000    0.10280    0.75000   1.00
C2       0.60280    0.75000    0.75000   1.00
C3a      0.58220    0.77470    0.77470   1.00
C3a      0.58220    0.72530    0.72530   1.00
H1       0.59620    0.79188    0.79187   1.00
H1       0.59620    0.70812    0.70813   1.00
C3a      0.54130    0.77495    0.77495   1.00
C3a      0.54130    0.72505    0.72505   1.00
H11      0.52750    0.79217    0.79217   1.00
H12      0.52750    0.70783    0.70783   1.00
C4       0.52060    0.75000    0.75000   1.00
C4       0.47940    0.75000    0.75000   1.00
C3a      0.45870    0.72505    0.72505   1.00
C3a      0.45870    0.77495    0.77495   1.00
H13      0.47250    0.70783    0.70783   1.00
H14      0.47250    0.79217    0.79217   1.00
C3a      0.41780    0.72530    0.72530   1.00
C3a      0.41780    0.77470    0.77470   1.00
H1       0.40380    0.70812    0.70813   1.00
H1       0.40380    0.79188    0.79187   1.00
C2       0.39720    0.75000    0.75000   1.00
C2       0.89720    0.75000    0.75000   1.00
C3a      0.91780    0.77470    0.72530   1.00
C3a      0.91780    0.72530    0.77470   1.00
H1       0.90380    0.79188    0.70813   1.00
H1       0.90380    0.70812    0.79187   1.00
C3a      0.95870    0.77495    0.72505   1.00
C3a      0.95870    0.72505    0.77495   1.00
H11      0.97250    0.79217    0.70783   1.00
H12      0.97250    0.70783    0.79217   1.00
C4       0.97940    0.75000    0.75000   1.00
C4       0.02060    0.75000    0.75000   1.00
C3a      0.04130    0.72505    0.77495   1.00
C3a      0.04130    0.77495    0.72505   1.00
H13      0.02750    0.70783    0.79217   1.00
H14      0.02750    0.79217    0.70783   1.00
C3a      0.08220    0.72530    0.77470   1.00
C3a      0.08220    0.77470    0.72530   1.00
H1       0.09620    0.70812    0.79187   1.00
H1       0.09620    0.79188    0.70813   1.00
C2       0.10280    0.75000    0.75000   1.00
C2       0.75000    0.60280    0.75000   1.00
C3a      0.77470    0.58220    0.77470   1.00
C3a      0.72530    0.58220    0.72530   1.00
H1       0.79187    0.59620    0.79188   1.00
H1       0.70813    0.59620    0.70812   1.00
C3a      0.77495    0.54130    0.77495   1.00
C3a      0.72505    0.54130    0.72505   1.00
H11      0.79217    0.52750    0.79217   1.00
H12      0.70783    0.52750    0.70783   1.00
C4       0.75000    0.52060    0.75000   1.00
C4       0.75000    0.47940    0.75000   1.00
C3a      0.72505    0.45870    0.72505   1.00
C3a      0.77495    0.45870    0.77495   1.00
H13      0.70783    0.47250    0.70783   1.00
H14      0.79217    0.47250    0.79217   1.00
C3a      0.72530    0.41780    0.72530   1.00
C3a      0.77470    0.41780    0.77470   1.00
H1       0.70813    0.40380    0.70812   1.00
H1       0.79187    0.40380    0.79188   1.00
C2       0.75000    0.39720    0.75000   1.00
C2       0.75000    0.75000    0.60280   1.00
C3a      0.77470    0.77470    0.58220   1.00
C3a      0.72530    0.72530    0.58220   1.00
H1       0.79188    0.79187    0.59620   1.00
H1       0.70812    0.70813    0.59620   1.00
C3a      0.77495    0.77495    0.54130   1.00
C3a      0.72505    0.72505    0.54130   1.00
H11      0.79217    0.79217    0.52750   1.00
H12      0.70783    0.70783    0.52750   1.00
C4       0.75000    0.75000    0.52060   1.00
C4       0.75000    0.75000    0.47940   1.00
C3a      0.72505    0.72505    0.45870   1.00
C3a      0.77495    0.77495    0.45870   1.00
H13      0.70783    0.70783    0.47250   1.00
H14      0.79217    0.79217    0.47250   1.00
C3a      0.72530    0.72530    0.41780   1.00
C3a      0.77470    0.77470    0.41780   1.00
H1       0.70812    0.70813    0.40380   1.00
H1       0.79188    0.79187    0.40380   1.00
C2       0.75000    0.75000    0.39720   1.00
C2       0.25000    0.25000    0.89720   1.00
C3a      0.27470    0.22530    0.91780   1.00
C3a      0.22530    0.27470    0.91780   1.00
H1       0.29188    0.20813    0.90380   1.00
H1       0.20812    0.29187    0.90380   1.00
C3a      0.27495    0.22505    0.95870   1.00
C3a      0.22505    0.27495    0.95870   1.00
H11      0.29217    0.20783    0.97250   1.00
H12      0.20783    0.29217    0.97250   1.00
C4       0.25000    0.25000    0.97940   1.00
C4       0.25000    0.25000    0.02060   1.00
C3a      0.22505    0.27495    0.04130   1.00
C3a      0.27495    0.22505    0.04130   1.00
H13      0.20783    0.29217    0.02750   1.00
H14      0.29217    0.20783    0.02750   1.00
C3a      0.22530    0.27470    0.08220   1.00
C3a      0.27470    0.22530    0.08220   1.00
H1       0.20812    0.29187    0.09620   1.00
H1       0.29188    0.20813    0.09620   1.00
C2       0.25000    0.25000    0.10280   1.00
C2       0.25000    0.39720    0.75000   1.00
C3a      0.22530    0.41780    0.77470   1.00
C3a      0.27470    0.41780    0.72530   1.00
H1       0.20813    0.40380    0.79188   1.00
H1       0.29187    0.40380    0.70812   1.00
C3a      0.22505    0.45870    0.77495   1.00
C3a      0.27495    0.45870    0.72505   1.00
H11      0.20783    0.47250    0.79217   1.00
H12      0.29217    0.47250    0.70783   1.00
C4       0.25000    0.47940    0.75000   1.00
C4       0.25000    0.52060    0.75000   1.00
C3a      0.27495    0.54130    0.72505   1.00
C3a      0.22505    0.54130    0.77495   1.00
H13      0.29217    0.52750    0.70783   1.00
H14      0.20783    0.52750    0.79217   1.00
C3a      0.27470    0.58220    0.72530   1.00
C3a      0.22530    0.58220    0.77470   1.00
H1       0.29187    0.59620    0.70812   1.00
H1       0.20813    0.59620    0.79188   1.00
C2       0.25000    0.60280    0.75000   1.00
C2       0.10280    0.25000    0.75000   1.00
C3a      0.08220    0.27470    0.77470   1.00
C3a      0.08220    0.22530    0.72530   1.00
H1       0.09620    0.29188    0.79187   1.00
H1       0.09620    0.20812    0.70813   1.00
C3a      0.04130    0.27495    0.77495   1.00
C3a      0.04130    0.22505    0.72505   1.00
H11      0.02750    0.29217    0.79217   1.00
H12      0.02750    0.20783    0.70783   1.00
C4       0.02060    0.25000    0.75000   1.00
C4       0.97940    0.25000    0.75000   1.00
C3a      0.95870    0.22505    0.72505   1.00
C3a      0.95870    0.27495    0.77495   1.00
H13      0.97250    0.20783    0.70783   1.00
H14      0.97250    0.29217    0.79217   1.00
C3a      0.91780    0.22530    0.72530   1.00
C3a      0.91780    0.27470    0.77470   1.00
H1       0.90380    0.20812    0.70813   1.00
H1       0.90380    0.29188    0.79187   1.00
C2       0.89720    0.25000    0.75000   1.00
C2       0.39720    0.25000    0.75000   1.00
C3a      0.41780    0.27470    0.72530   1.00
C3a      0.41780    0.22530    0.77470   1.00
H1       0.40380    0.29188    0.70813   1.00
H1       0.40380    0.20812    0.79187   1.00
C3a      0.45870    0.27495    0.72505   1.00
C3a      0.45870    0.22505    0.77495   1.00
H11      0.47250    0.29217    0.70783   1.00
H12      0.47250    0.20783    0.79217   1.00
C4       0.47940    0.25000    0.75000   1.00
C4       0.52060    0.25000    0.75000   1.00
C3a      0.54130    0.22505    0.77495   1.00
C3a      0.54130    0.27495    0.72505   1.00
H13      0.52750    0.20783    0.79217   1.00
H14      0.52750    0.29217    0.70783   1.00
C3a      0.58220    0.22530    0.77470   1.00
C3a      0.58220    0.27470    0.72530   1.00
H1       0.59620    0.20812    0.79187   1.00
H1       0.59620    0.29188    0.70813   1.00
C2       0.60280    0.25000    0.75000   1.00
C2       0.25000    0.10280    0.75000   1.00
C3a      0.27470    0.08220    0.77470   1.00
C3a      0.22530    0.08220    0.72530   1.00
H1       0.29187    0.09620    0.79188   1.00
H1       0.20813    0.09620    0.70812   1.00
C3a      0.27495    0.04130    0.77495   1.00
C3a      0.22505    0.04130    0.72505   1.00
H11      0.29217    0.02750    0.79217   1.00
H12      0.20783    0.02750    0.70783   1.00
C4       0.25000    0.02060    0.75000   1.00
C4       0.25000    0.97940    0.75000   1.00
C3a      0.22505    0.95870    0.72505   1.00
C3a      0.27495    0.95870    0.77495   1.00
H13      0.20783    0.97250    0.70783   1.00
H14      0.29217    0.97250    0.79217   1.00
C3a      0.22530    0.91780    0.72530   1.00
C3a      0.27470    0.91780    0.77470   1.00
H1       0.20813    0.90380    0.70812   1.00
H1       0.29187    0.90380    0.79188   1.00
C2       0.25000    0.89720    0.75000   1.00
C2       0.25000    0.25000    0.60280   1.00
C3a      0.27470    0.27470    0.58220   1.00
C3a      0.22530    0.22530    0.58220   1.00
H1       0.29188    0.29187    0.59620   1.00
H1       0.20812    0.20813    0.59620   1.00
C3a      0.27495    0.27495    0.54130   1.00
C3a      0.22505    0.22505    0.54130   1.00
H11      0.29217    0.29217    0.52750   1.00
H12      0.20783    0.20783    0.52750   1.00
C4       0.25000    0.25000    0.52060   1.00
C4       0.25000    0.25000    0.47940   1.00
C3a      0.22505    0.22505    0.45870   1.00
C3a      0.27495    0.27495    0.45870   1.00
H13      0.20783    0.20783    0.47250   1.00
H14      0.29217    0.29217    0.47250   1.00
C3a      0.22530    0.22530    0.41780   1.00
C3a      0.27470    0.27470    0.41780   1.00
H1       0.20812    0.20813    0.40380   1.00
H1       0.29188    0.29187    0.40380   1.00
C2       0.25000    0.25000    0.39720   1.00
C2       0.25000    0.75000    0.39720   1.00
C3a      0.27470    0.72530    0.41780   1.00
C3a      0.22530    0.77470    0.41780   1.00
H1       0.29188    0.70813    0.40380   1.00
H1       0.20812    0.79187    0.40380   1.00
C3a      0.27495    0.72505    0.45870   1.00
C3a      0.22505    0.77495    0.45870   1.00
H11      0.29217    0.70783    0.47250   1.00
H12      0.20783    0.79217    0.47250   1.00
C4       0.25000    0.75000    0.47940   1.00
C4       0.25000    0.75000    0.52060   1.00
C3a      0.22505    0.77495    0.54130   1.00
C3a      0.27495    0.72505    0.54130   1.00
H13      0.20783    0.79217    0.52750   1.00
H14      0.29217    0.70783    0.52750   1.00
C3a      0.22530    0.77470    0.58220   1.00
C3a      0.27470    0.72530    0.58220   1.00
H1       0.20812    0.79187    0.59620   1.00
H1       0.29188    0.70813    0.59620   1.00
C2       0.25000    0.75000    0.60280   1.00
C2       0.25000    0.89720    0.25000   1.00
C3a      0.22530    0.91780    0.27470   1.00
C3a      0.27470    0.91780    0.22530   1.00
H1       0.20813    0.90380    0.29188   1.00
H1       0.29187    0.90380    0.20812   1.00
C3a      0.22505    0.95870    0.27495   1.00
C3a      0.27495    0.95870    0.22505   1.00
H11      0.20783    0.97250    0.29217   1.00
H12      0.29217    0.97250    0.20783   1.00
C4       0.25000    0.97940    0.25000   1.00
C4       0.25000    0.02060    0.25000   1.00
C3a      0.27495    0.04130    0.22505   1.00
C3a      0.22505    0.04130    0.27495   1.00
H13      0.29217    0.02750    0.20783   1.00
H14      0.20783    0.02750    0.29217   1.00
C3a      0.27470    0.08220    0.22530   1.00
C3a      0.22530    0.08220    0.27470   1.00
H1       0.29187    0.09620    0.20812   1.00
H1       0.20813    0.09620    0.29188   1.00
C2       0.25000    0.10280    0.25000   1.00
C2       0.10280    0.75000    0.25000   1.00
C3a      0.08220    0.77470    0.27470   1.00
C3a      0.08220    0.72530    0.22530   1.00
H1       0.09620    0.79188    0.29187   1.00
H1       0.09620    0.70812    0.20813   1.00
C3a      0.04130    0.77495    0.27495   1.00
C3a      0.04130    0.72505    0.22505   1.00
H11      0.02750    0.79217    0.29217   1.00
H12      0.02750    0.70783    0.20783   1.00
C4       0.02060    0.75000    0.25000   1.00
C4       0.97940    0.75000    0.25000   1.00
C3a      0.95870    0.72505    0.22505   1.00
C3a      0.95870    0.77495    0.27495   1.00
H13      0.97250    0.70783    0.20783   1.00
H14      0.97250    0.79217    0.29217   1.00
C3a      0.91780    0.72530    0.22530   1.00
C3a      0.91780    0.77470    0.27470   1.00
H1       0.90380    0.70812    0.20813   1.00
H1       0.90380    0.79188    0.29187   1.00
C2       0.89720    0.75000    0.25000   1.00
C2       0.39720    0.75000    0.25000   1.00
C3a      0.41780    0.77470    0.22530   1.00
C3a      0.41780    0.72530    0.27470   1.00
H1       0.40380    0.79188    0.20813   1.00
H1       0.40380    0.70812    0.29187   1.00
C3a      0.45870    0.77495    0.22505   1.00
C3a      0.45870    0.72505    0.27495   1.00
H11      0.47250    0.79217    0.20783   1.00
H12      0.47250    0.70783    0.29217   1.00
C4       0.47940    0.75000    0.25000   1.00
C4       0.52060    0.75000    0.25000   1.00
C3a      0.54130    0.72505    0.27495   1.00
C3a      0.54130    0.77495    0.22505   1.00
H13      0.52750    0.70783    0.29217   1.00
H14      0.52750    0.79217    0.20783   1.00
C3a      0.58220    0.72530    0.27470   1.00
C3a      0.58220    0.77470    0.22530   1.00
H1       0.59620    0.70812    0.29187   1.00
H1       0.59620    0.79188    0.20813   1.00
C2       0.60280    0.75000    0.25000   1.00
C2       0.25000    0.60280    0.25000   1.00
C3a      0.27470    0.58220    0.27470   1.00
C3a      0.22530    0.58220    0.22530   1.00
H1       0.29187    0.59620    0.29188   1.00
H1       0.20813    0.59620    0.20812   1.00
C3a      0.27495    0.54130    0.27495   1.00
C3a      0.22505    0.54130    0.22505   1.00
H11      0.29217    0.52750    0.29217   1.00
H12      0.20783    0.52750    0.20783   1.00
C4       0.25000    0.52060    0.25000   1.00
C4       0.25000    0.47940    0.25000   1.00
C3a      0.22505    0.45870    0.22505   1.00
C3a      0.27495    0.45870    0.27495   1.00
H13      0.20783    0.47250    0.20783   1.00
H14      0.29217    0.47250    0.29217   1.00
C3a      0.22530    0.41780    0.22530   1.00
C3a      0.27470    0.41780    0.27470   1.00
H1       0.20813    0.40380    0.20812   1.00
H1       0.29187    0.40380    0.29188   1.00
C2       0.25000    0.39720    0.25000   1.00
C2       0.25000    0.75000    0.10280   1.00
C3a      0.27470    0.77470    0.08220   1.00
C3a      0.22530    0.72530    0.08220   1.00
H1       0.29188    0.79187    0.09620   1.00
H1       0.20812    0.70813    0.09620   1.00
C3a      0.27495    0.77495    0.04130   1.00
C3a      0.22505    0.72505    0.04130   1.00
H11      0.29217    0.79217    0.02750   1.00
H12      0.20783    0.70783    0.02750   1.00
C4       0.25000    0.75000    0.02060   1.00
C4       0.25000    0.75000    0.97940   1.00
C3a      0.22505    0.72505    0.95870   1.00
C3a      0.27495    0.77495    0.95870   1.00
H13      0.20783    0.70783    0.97250   1.00
H14      0.29217    0.79217    0.97250   1.00
C3a      0.22530    0.72530    0.91780   1.00
C3a      0.27470    0.77470    0.91780   1.00
H1       0.20812    0.70813    0.90380   1.00
H1       0.29188    0.79187    0.90380   1.00
C2       0.25000    0.75000    0.89720   1.00
C2       0.75000    0.25000    0.39720   1.00
C3a      0.77470    0.22530    0.41780   1.00
C3a      0.72530    0.27470    0.41780   1.00
H1       0.79188    0.20813    0.40380   1.00
H1       0.70812    0.29187    0.40380   1.00
C3a      0.77495    0.22505    0.45870   1.00
C3a      0.72505    0.27495    0.45870   1.00
H11      0.79217    0.20783    0.47250   1.00
H12      0.70783    0.29217    0.47250   1.00
C4       0.75000    0.25000    0.47940   1.00
C4       0.75000    0.25000    0.52060   1.00
C3a      0.72505    0.27495    0.54130   1.00
C3a      0.77495    0.22505    0.54130   1.00
H13      0.70783    0.29217    0.52750   1.00
H14      0.79217    0.20783    0.52750   1.00
C3a      0.72530    0.27470    0.58220   1.00
C3a      0.77470    0.22530    0.58220   1.00
H1       0.70812    0.29187    0.59620   1.00
H1       0.79188    0.20813    0.59620   1.00
C2       0.75000    0.25000    0.60280   1.00
C2       0.75000    0.39720    0.25000   1.00
C3a      0.72530    0.41780    0.27470   1.00
C3a      0.77470    0.41780    0.22530   1.00
H1       0.70813    0.40380    0.29188   1.00
H1       0.79187    0.40380    0.20812   1.00
C3a      0.72505    0.45870    0.27495   1.00
C3a      0.77495    0.45870    0.22505   1.00
H11      0.70783    0.47250    0.29217   1.00
H12      0.79217    0.47250    0.20783   1.00
C4       0.75000    0.47940    0.25000   1.00
C4       0.75000    0.52060    0.25000   1.00
C3a      0.77495    0.54130    0.22505   1.00
C3a      0.72505    0.54130    0.27495   1.00
H13      0.79217    0.52750    0.20783   1.00
H14      0.70783    0.52750    0.29217   1.00
C3a      0.77470    0.58220    0.22530   1.00
C3a      0.72530    0.58220    0.27470   1.00
H1       0.79187    0.59620    0.20812   1.00
H1       0.70813    0.59620    0.29188   1.00
C2       0.75000    0.60280    0.25000   1.00
C2       0.60280    0.25000    0.25000   1.00
C3a      0.58220    0.27470    0.27470   1.00
C3a      0.58220    0.22530    0.22530   1.00
H1       0.59620    0.29188    0.29187   1.00
H1       0.59620    0.20812    0.20813   1.00
C3a      0.54130    0.27495    0.27495   1.00
C3a      0.54130    0.22505    0.22505   1.00
H11      0.52750    0.29217    0.29217   1.00
H12      0.52750    0.20783    0.20783   1.00
C4       0.52060    0.25000    0.25000   1.00
C4       0.47940    0.25000    0.25000   1.00
C3a      0.45870    0.22505    0.22505   1.00
C3a      0.45870    0.27495    0.27495   1.00
H13      0.47250    0.20783    0.20783   1.00
H14      0.47250    0.29217    0.29217   1.00
C3a      0.41780    0.22530    0.22530   1.00
C3a      0.41780    0.27470    0.27470   1.00
H1       0.40380    0.20812    0.20813   1.00
H1       0.40380    0.29188    0.29187   1.00
C2       0.39720    0.25000    0.25000   1.00
C2       0.89720    0.25000    0.25000   1.00
C3a      0.91780    0.27470    0.22530   1.00
C3a      0.91780    0.22530    0.27470   1.00
H1       0.90380    0.29188    0.20813   1.00
H1       0.90380    0.20812    0.29187   1.00
C3a      0.95870    0.27495    0.22505   1.00
C3a      0.95870    0.22505    0.27495   1.00
H11      0.97250    0.29217    0.20783   1.00
H12      0.97250    0.20783    0.29217   1.00
C4       0.97940    0.25000    0.25000   1.00
C4       0.02060    0.25000    0.25000   1.00
C3a      0.04130    0.22505    0.27495   1.00
C3a      0.04130    0.27495    0.22505   1.00
H13      0.02750    0.20783    0.29217   1.00
H14      0.02750    0.29217    0.20783   1.00
C3a      0.08220    0.22530    0.27470   1.00
C3a      0.08220    0.27470    0.22530   1.00
H1       0.09620    0.20812    0.29187   1.00
H1       0.09620    0.29188    0.20813   1.00
C2       0.10280    0.25000    0.25000   1.00
C2       0.75000    0.10280    0.25000   1.00
C3a      0.77470    0.08220    0.27470   1.00
C3a      0.72530    0.08220    0.22530   1.00
H1       0.79187    0.09620    0.29188   1.00
H1       0.70813    0.09620    0.20812   1.00
C3a      0.77495    0.04130    0.27495   1.00
C3a      0.72505    0.04130    0.22505   1.00
H11      0.79217    0.02750    0.29217   1.00
H12      0.70783    0.02750    0.20783   1.00
C4       0.75000    0.02060    0.25000   1.00
C4       0.75000    0.97940    0.25000   1.00
C3a      0.72505    0.95870    0.22505   1.00
C3a      0.77495    0.95870    0.27495   1.00
H13      0.70783    0.97250    0.20783   1.00
H14      0.79217    0.97250    0.29217   1.00
C3a      0.72530    0.91780    0.22530   1.00
C3a      0.77470    0.91780    0.27470   1.00
H1       0.70813    0.90380    0.20812   1.00
H1       0.79187    0.90380    0.29188   1.00
C2       0.75000    0.89720    0.25000   1.00
C2       0.75000    0.25000    0.10280   1.00
C3a      0.77470    0.27470    0.08220   1.00
C3a      0.72530    0.22530    0.08220   1.00
H1       0.79188    0.29187    0.09620   1.00
H1       0.70812    0.20813    0.09620   1.00
C3a      0.77495    0.27495    0.04130   1.00
C3a      0.72505    0.22505    0.04130   1.00
H11      0.79217    0.29217    0.02750   1.00
H12      0.70783    0.20783    0.02750   1.00
C4       0.75000    0.25000    0.02060   1.00
C4       0.75000    0.25000    0.97940   1.00
C3a      0.72505    0.22505    0.95870   1.00
C3a      0.77495    0.27495    0.95870   1.00
H13      0.70783    0.20783    0.97250   1.00
H14      0.79217    0.29217    0.97250   1.00
C3a      0.72530    0.22530    0.91780   1.00
C3a      0.77470    0.27470    0.91780   1.00
H1       0.70812    0.20813    0.90380   1.00
H1       0.79188    0.29187    0.90380   1.00
C2       0.75000    0.25000    0.89720   1.00
C2       0.91500    0.91500    1.06220   1.00
C3a      0.93970    0.89030    1.08280   1.00
C3a      0.89030    0.93970    1.08280   1.00
H1       0.95688    0.87313    1.06880   1.00
H1       0.87312    0.95687    1.06880   1.00
C3a      0.93995    0.89005    1.12370   1.00
C3a      0.89005    0.93995    1.12370   1.00
H11      0.95717    0.87283    1.13750   1.00
H12      0.87283    0.95717    1.13750   1.00
C4       0.91500    0.91500    1.14440   1.00
C4       0.91500    0.91500    0.18560   1.00
C3a      0.89005    0.93995    0.20630   1.00
C3a      0.93995    0.89005    0.20630   1.00
H13      0.87283    0.95717    0.19250   1.00
H14      0.95717    0.87283    0.19250   1.00
C3a      0.89030    0.93970    0.24720   1.00
C3a      0.93970    0.89030    0.24720   1.00
H1       0.87312    0.95687    0.26120   1.00
H1       0.95688    0.87313    0.26120   1.00
C2       0.91500    0.91500    0.26780   1.00
C2       0.91500    1.06220    0.91500   1.00
C3a      0.89030    1.08280    0.93970   1.00
C3a      0.93970    1.08280    0.89030   1.00
H1       0.87313    1.06880    0.95688   1.00
H1       0.95687    1.06880    0.87312   1.00
C3a      0.89005    1.12370    0.93995   1.00
C3a      0.93995    1.12370    0.89005   1.00
H11      0.87283    1.13750    0.95717   1.00
H12      0.95717    1.13750    0.87283   1.00
C4       0.91500    1.14440    0.91500   1.00
C4       0.91500    0.18560    0.91500   1.00
C3a      0.93995    0.20630    0.89005   1.00
C3a      0.89005    0.20630    0.93995   1.00
H13      0.95717    0.19250    0.87283   1.00
H14      0.87283    0.19250    0.95717   1.00
C3a      0.93970    0.24720    0.89030   1.00
C3a      0.89030    0.24720    0.93970   1.00
H1       0.95687    0.26120    0.87312   1.00
H1       0.87313    0.26120    0.95688   1.00
C2       0.91500    0.26780    0.91500   1.00
C2       0.76780    0.91500    0.91500   1.00
C3a      0.74720    0.93970    0.93970   1.00
C3a      0.74720    0.89030    0.89030   1.00
H1       0.76120    0.95688    0.95687   1.00
H1       0.76120    0.87312    0.87313   1.00
C3a      0.70630    0.93995    0.93995   1.00
C3a      0.70630    0.89005    0.89005   1.00
H11      0.69250    0.95717    0.95717   1.00
H12      0.69250    0.87283    0.87283   1.00
C4       0.68560    0.91500    0.91500   1.00
C4       0.64440    0.91500    0.91500   1.00
C3a      0.62370    0.89005    0.89005   1.00
C3a      0.62370    0.93995    0.93995   1.00
H13      0.63750    0.87283    0.87283   1.00
H14      0.63750    0.95717    0.95717   1.00
C3a      0.58280    0.89030    0.89030   1.00
C3a      0.58280    0.93970    0.93970   1.00
H1       0.56880    0.87312    0.87313   1.00
H1       0.56880    0.95688    0.95687   1.00
C2       0.56220    0.91500    0.91500   1.00
C2       1.06220    0.91500    0.91500   1.00
C3a      1.08280    0.93970    0.89030   1.00
C3a      1.08280    0.89030    0.93970   1.00
H1       1.06880    0.95688    0.87313   1.00
H1       1.06880    0.87312    0.95687   1.00
C3a      1.12370    0.93995    0.89005   1.00
C3a      1.12370    0.89005    0.93995   1.00
H11      1.13750    0.95717    0.87283   1.00
H12      1.13750    0.87283    0.95717   1.00
C4       1.14440    0.91500    0.91500   1.00
C4       0.18560    0.91500    0.91500   1.00
C3a      0.20630    0.89005    0.93995   1.00
C3a      0.20630    0.93995    0.89005   1.00
H13      0.19250    0.87283    0.95717   1.00
H14      0.19250    0.95717    0.87283   1.00
C3a      0.24720    0.89030    0.93970   1.00
C3a      0.24720    0.93970    0.89030   1.00
H1       0.26120    0.87312    0.95687   1.00
H1       0.26120    0.95688    0.87313   1.00
C2       0.26780    0.91500    0.91500   1.00
C2       0.91500    0.76780    0.91500   1.00
C3a      0.93970    0.74720    0.93970   1.00
C3a      0.89030    0.74720    0.89030   1.00
H1       0.95687    0.76120    0.95688   1.00
H1       0.87313    0.76120    0.87312   1.00
C3a      0.93995    0.70630    0.93995   1.00
C3a      0.89005    0.70630    0.89005   1.00
H11      0.95717    0.69250    0.95717   1.00
H12      0.87283    0.69250    0.87283   1.00
C4       0.91500    0.68560    0.91500   1.00
C4       0.91500    0.64440    0.91500   1.00
C3a      0.89005    0.62370    0.89005   1.00
C3a      0.93995    0.62370    0.93995   1.00
H13      0.87283    0.63750    0.87283   1.00
H14      0.95717    0.63750    0.95717   1.00
C3a      0.89030    0.58280    0.89030   1.00
C3a      0.93970    0.58280    0.93970   1.00
H1       0.87313    0.56880    0.87312   1.00
H1       0.95687    0.56880    0.95688   1.00
C2       0.91500    0.56220    0.91500   1.00
C2       0.91500    0.91500    0.76780   1.00
C3a      0.93970    0.93970    0.74720   1.00
C3a      0.89030    0.89030    0.74720   1.00
H1       0.95688    0.95687    0.76120   1.00
H1       0.87312    0.87313    0.76120   1.00
C3a      0.93995    0.93995    0.70630   1.00
C3a      0.89005    0.89005    0.70630   1.00
H11      0.95717    0.95717    0.69250   1.00
H12      0.87283    0.87283    0.69250   1.00
C4       0.91500    0.91500    0.68560   1.00
C4       0.91500    0.91500    0.64440   1.00
C3a      0.89005    0.89005    0.62370   1.00
C3a      0.93995    0.93995    0.62370   1.00
H13      0.87283    0.87283    0.63750   1.00
H14      0.95717    0.95717    0.63750   1.00
C3a      0.89030    0.89030    0.58280   1.00
C3a      0.93970    0.93970    0.58280   1.00
H1       0.87312    0.87313    0.56880   1.00
H1       0.95688    0.95687    0.56880   1.00
C2       0.91500    0.91500    0.56220   1.00
C2       0.41500    0.41500    1.06220   1.00
C3a      0.43970    0.39030    1.08280   1.00
C3a      0.39030    0.43970    1.08280   1.00
H1       0.45688    0.37313    1.06880   1.00
H1       0.37312    0.45687    1.06880   1.00
C3a      0.43995    0.39005    1.12370   1.00
C3a      0.39005    0.43995    1.12370   1.00
H11      0.45717    0.37283    1.13750   1.00
H12      0.37283    0.45717    1.13750   1.00
C4       0.41500    0.41500    1.14440   1.00
C4       0.41500    0.41500    0.18560   1.00
C3a      0.39005    0.43995    0.20630   1.00
C3a      0.43995    0.39005    0.20630   1.00
H13      0.37283    0.45717    0.19250   1.00
H14      0.45717    0.37283    0.19250   1.00
C3a      0.39030    0.43970    0.24720   1.00
C3a      0.43970    0.39030    0.24720   1.00
H1       0.37312    0.45687    0.26120   1.00
H1       0.45688    0.37313    0.26120   1.00
C2       0.41500    0.41500    0.26780   1.00
C2       0.41500    0.56220    0.91500   1.00
C3a      0.39030    0.58280    0.93970   1.00
C3a      0.43970    0.58280    0.89030   1.00
H1       0.37313    0.56880    0.95688   1.00
H1       0.45687    0.56880    0.87312   1.00
C3a      0.39005    0.62370    0.93995   1.00
C3a      0.43995    0.62370    0.89005   1.00
H11      0.37283    0.63750    0.95717   1.00
H12      0.45717    0.63750    0.87283   1.00
C4       0.41500    0.64440    0.91500   1.00
C4       0.41500    0.68560    0.91500   1.00
C3a      0.43995    0.70630    0.89005   1.00
C3a      0.39005    0.70630    0.93995   1.00
H13      0.45717    0.69250    0.87283   1.00
H14      0.37283    0.69250    0.95717   1.00
C3a      0.43970    0.74720    0.89030   1.00
C3a      0.39030    0.74720    0.93970   1.00
H1       0.45687    0.76120    0.87312   1.00
H1       0.37313    0.76120    0.95688   1.00
C2       0.41500    0.76780    0.91500   1.00
C2       0.26780    0.41500    0.91500   1.00
C3a      0.24720    0.43970    0.93970   1.00
C3a      0.24720    0.39030    0.89030   1.00
H1       0.26120    0.45688    0.95687   1.00
H1       0.26120    0.37312    0.87313   1.00
C3a      0.20630    0.43995    0.93995   1.00
C3a      0.20630    0.39005    0.89005   1.00
H11      0.19250    0.45717    0.95717   1.00
H12      0.19250    0.37283    0.87283   1.00
C4       0.18560    0.41500    0.91500   1.00
C4       1.14440    0.41500    0.91500   1.00
C3a      1.12370    0.39005    0.89005   1.00
C3a      1.12370    0.43995    0.93995   1.00
H13      1.13750    0.37283    0.87283   1.00
H14      1.13750    0.45717    0.95717   1.00
C3a      1.08280    0.39030    0.89030   1.00
C3a      1.08280    0.43970    0.93970   1.00
H1       1.06880    0.37312    0.87313   1.00
H1       1.06880    0.45688    0.95687   1.00
C2       1.06220    0.41500    0.91500   1.00
C2       0.56220    0.41500    0.91500   1.00
C3a      0.58280    0.43970    0.89030   1.00
C3a      0.58280    0.39030    0.93970   1.00
H1       0.56880    0.45688    0.87313   1.00
H1       0.56880    0.37312    0.95687   1.00
C3a      0.62370    0.43995    0.89005   1.00
C3a      0.62370    0.39005    0.93995   1.00
H11      0.63750    0.45717    0.87283   1.00
H12      0.63750    0.37283    0.95717   1.00
C4       0.64440    0.41500    0.91500   1.00
C4       0.68560    0.41500    0.91500   1.00
C3a      0.70630    0.39005    0.93995   1.00
C3a      0.70630    0.43995    0.89005   1.00
H13      0.69250    0.37283    0.95717   1.00
H14      0.69250    0.45717    0.87283   1.00
C3a      0.74720    0.39030    0.93970   1.00
C3a      0.74720    0.43970    0.89030   1.00
H1       0.76120    0.37312    0.95687   1.00
H1       0.76120    0.45688    0.87313   1.00
C2       0.76780    0.41500    0.91500   1.00
C2       0.41500    0.26780    0.91500   1.00
C3a      0.43970    0.24720    0.93970   1.00
C3a      0.39030    0.24720    0.89030   1.00
H1       0.45687    0.26120    0.95688   1.00
H1       0.37313    0.26120    0.87312   1.00
C3a      0.43995    0.20630    0.93995   1.00
C3a      0.39005    0.20630    0.89005   1.00
H11      0.45717    0.19250    0.95717   1.00
H12      0.37283    0.19250    0.87283   1.00
C4       0.41500    0.18560    0.91500   1.00
C4       0.41500    1.14440    0.91500   1.00
C3a      0.39005    1.12370    0.89005   1.00
C3a      0.43995    1.12370    0.93995   1.00
H13      0.37283    1.13750    0.87283   1.00
H14      0.45717    1.13750    0.95717   1.00
C3a      0.39030    1.08280    0.89030   1.00
C3a      0.43970    1.08280    0.93970   1.00
H1       0.37313    1.06880    0.87312   1.00
H1       0.45687    1.06880    0.95688   1.00
C2       0.41500    1.06220    0.91500   1.00
C2       0.41500    0.41500    0.76780   1.00
C3a      0.43970    0.43970    0.74720   1.00
C3a      0.39030    0.39030    0.74720   1.00
H1       0.45688    0.45687    0.76120   1.00
H1       0.37312    0.37313    0.76120   1.00
C3a      0.43995    0.43995    0.70630   1.00
C3a      0.39005    0.39005    0.70630   1.00
H11      0.45717    0.45717    0.69250   1.00
H12      0.37283    0.37283    0.69250   1.00
C4       0.41500    0.41500    0.68560   1.00
C4       0.41500    0.41500    0.64440   1.00
C3a      0.39005    0.39005    0.62370   1.00
C3a      0.43995    0.43995    0.62370   1.00
H13      0.37283    0.37283    0.63750   1.00
H14      0.45717    0.45717    0.63750   1.00
C3a      0.39030    0.39030    0.58280   1.00
C3a      0.43970    0.43970    0.58280   1.00
H1       0.37312    0.37313    0.56880   1.00
H1       0.45688    0.45687    0.56880   1.00
C2       0.41500    0.41500    0.56220   1.00
C2       0.41500    0.91500    0.56220   1.00
C3a      0.43970    0.89030    0.58280   1.00
C3a      0.39030    0.93970    0.58280   1.00
H1       0.45688    0.87313    0.56880   1.00
H1       0.37312    0.95687    0.56880   1.00
C3a      0.43995    0.89005    0.62370   1.00
C3a      0.39005    0.93995    0.62370   1.00
H11      0.45717    0.87283    0.63750   1.00
H12      0.37283    0.95717    0.63750   1.00
C4       0.41500    0.91500    0.64440   1.00
C4       0.41500    0.91500    0.68560   1.00
C3a      0.39005    0.93995    0.70630   1.00
C3a      0.43995    0.89005    0.70630   1.00
H13      0.37283    0.95717    0.69250   1.00
H14      0.45717    0.87283    0.69250   1.00
C3a      0.39030    0.93970    0.74720   1.00
C3a      0.43970    0.89030    0.74720   1.00
H1       0.37312    0.95687    0.76120   1.00
H1       0.45688    0.87313    0.76120   1.00
C2       0.41500    0.91500    0.76780   1.00
C2       0.41500    1.06220    0.41500   1.00
C3a      0.39030    1.08280    0.43970   1.00
C3a      0.43970    1.08280    0.39030   1.00
H1       0.37313    1.06880    0.45688   1.00
H1       0.45687    1.06880    0.37312   1.00
C3a      0.39005    1.12370    0.43995   1.00
C3a      0.43995    1.12370    0.39005   1.00
H11      0.37283    1.13750    0.45717   1.00
H12      0.45717    1.13750    0.37283   1.00
C4       0.41500    1.14440    0.41500   1.00
C4       0.41500    0.18560    0.41500   1.00
C3a      0.43995    0.20630    0.39005   1.00
C3a      0.39005    0.20630    0.43995   1.00
H13      0.45717    0.19250    0.37283   1.00
H14      0.37283    0.19250    0.45717   1.00
C3a      0.43970    0.24720    0.39030   1.00
C3a      0.39030    0.24720    0.43970   1.00
H1       0.45687    0.26120    0.37312   1.00
H1       0.37313    0.26120    0.45688   1.00
C2       0.41500    0.26780    0.41500   1.00
C2       0.26780    0.91500    0.41500   1.00
C3a      0.24720    0.93970    0.43970   1.00
C3a      0.24720    0.89030    0.39030   1.00
H1       0.26120    0.95688    0.45687   1.00
H1       0.26120    0.87312    0.37313   1.00
C3a      0.20630    0.93995    0.43995   1.00
C3a      0.20630    0.89005    0.39005   1.00
H11      0.19250    0.95717    0.45717   1.00
H12      0.19250    0.87283    0.37283   1.00
C4       0.18560    0.91500    0.41500   1.00
C4       1.14440    0.91500    0.41500   1.00
C3a      1.12370    0.89005    0.39005   1.00
C3a      1.12370    0.93995    0.43995   1.00
H13      1.13750    0.87283    0.37283   1.00
H14      1.13750    0.95717    0.45717   1.00
C3a      1.08280    0.89030    0.39030   1.00
C3a      1.08280    0.93970    0.43970   1.00
H1       1.06880    0.87312    0.37313   1.00
H1       1.06880    0.95688    0.45687   1.00
C2       1.06220    0.91500    0.41500   1.00
C2       0.56220    0.91500    0.41500   1.00
C3a      0.58280    0.93970    0.39030   1.00
C3a      0.58280    0.89030    0.43970   1.00
H1       0.56880    0.95688    0.37313   1.00
H1       0.56880    0.87312    0.45687   1.00
C3a      0.62370    0.93995    0.39005   1.00
C3a      0.62370    0.89005    0.43995   1.00
H11      0.63750    0.95717    0.37283   1.00
H12      0.63750    0.87283    0.45717   1.00
C4       0.64440    0.91500    0.41500   1.00
C4       0.68560    0.91500    0.41500   1.00
C3a      0.70630    0.89005    0.43995   1.00
C3a      0.70630    0.93995    0.39005   1.00
H13      0.69250    0.87283    0.45717   1.00
H14      0.69250    0.95717    0.37283   1.00
C3a      0.74720    0.89030    0.43970   1.00
C3a      0.74720    0.93970    0.39030   1.00
H1       0.76120    0.87312    0.45687   1.00
H1       0.76120    0.95688    0.37313   1.00
C2       0.76780    0.91500    0.41500   1.00
C2       0.41500    0.76780    0.41500   1.00
C3a      0.43970    0.74720    0.43970   1.00
C3a      0.39030    0.74720    0.39030   1.00
H1       0.45687    0.76120    0.45688   1.00
H1       0.37313    0.76120    0.37312   1.00
C3a      0.43995    0.70630    0.43995   1.00
C3a      0.39005    0.70630    0.39005   1.00
H11      0.45717    0.69250    0.45717   1.00
H12      0.37283    0.69250    0.37283   1.00
C4       0.41500    0.68560    0.41500   1.00
C4       0.41500    0.64440    0.41500   1.00
C3a      0.39005    0.62370    0.39005   1.00
C3a      0.43995    0.62370    0.43995   1.00
H13      0.37283    0.63750    0.37283   1.00
H14      0.45717    0.63750    0.45717   1.00
C3a      0.39030    0.58280    0.39030   1.00
C3a      0.43970    0.58280    0.43970   1.00
H1       0.37313    0.56880    0.37312   1.00
H1       0.45687    0.56880    0.45688   1.00
C2       0.41500    0.56220    0.41500   1.00
C2       0.41500    0.91500    0.26780   1.00
C3a      0.43970    0.93970    0.24720   1.00
C3a      0.39030    0.89030    0.24720   1.00
H1       0.45688    0.95687    0.26120   1.00
H1       0.37312    0.87313    0.26120   1.00
C3a      0.43995    0.93995    0.20630   1.00
C3a      0.39005    0.89005    0.20630   1.00
H11      0.45717    0.95717    0.19250   1.00
H12      0.37283    0.87283    0.19250   1.00
C4       0.41500    0.91500    0.18560   1.00
C4       0.41500    0.91500    1.14440   1.00
C3a      0.39005    0.89005    1.12370   1.00
C3a      0.43995    0.93995    1.12370   1.00
H13      0.37283    0.87283    1.13750   1.00
H14      0.45717    0.95717    1.13750   1.00
C3a      0.39030    0.89030    1.08280   1.00
C3a      0.43970    0.93970    1.08280   1.00
H1       0.37312    0.87313    1.06880   1.00
H1       0.45688    0.95687    1.06880   1.00
C2       0.41500    0.91500    1.06220   1.00
C2       0.91500    0.41500    0.56220   1.00
C3a      0.93970    0.39030    0.58280   1.00
C3a      0.89030    0.43970    0.58280   1.00
H1       0.95688    0.37313    0.56880   1.00
H1       0.87312    0.45687    0.56880   1.00
C3a      0.93995    0.39005    0.62370   1.00
C3a      0.89005    0.43995    0.62370   1.00
H11      0.95717    0.37283    0.63750   1.00
H12      0.87283    0.45717    0.63750   1.00
C4       0.91500    0.41500    0.64440   1.00
C4       0.91500    0.41500    0.68560   1.00
C3a      0.89005    0.43995    0.70630   1.00
C3a      0.93995    0.39005    0.70630   1.00
H13      0.87283    0.45717    0.69250   1.00
H14      0.95717    0.37283    0.69250   1.00
C3a      0.89030    0.43970    0.74720   1.00
C3a      0.93970    0.39030    0.74720   1.00
H1       0.87312    0.45687    0.76120   1.00
H1       0.95688    0.37313    0.76120   1.00
C2       0.91500    0.41500    0.76780   1.00
C2       0.91500    0.56220    0.41500   1.00
C3a      0.89030    0.58280    0.43970   1.00
C3a      0.93970    0.58280    0.39030   1.00
H1       0.87313    0.56880    0.45688   1.00
H1       0.95687    0.56880    0.37312   1.00
C3a      0.89005    0.62370    0.43995   1.00
C3a      0.93995    0.62370    0.39005   1.00
H11      0.87283    0.63750    0.45717   1.00
H12      0.95717    0.63750    0.37283   1.00
C4       0.91500    0.64440    0.41500   1.00
C4       0.91500    0.68560    0.41500   1.00
C3a      0.93995    0.70630    0.39005   1.00
C3a      0.89005    0.70630    0.43995   1.00
H13      0.95717    0.69250    0.37283   1.00
H14      0.87283    0.69250    0.45717   1.00
C3a      0.93970    0.74720    0.39030   1.00
C3a      0.89030    0.74720    0.43970   1.00
H1       0.95687    0.76120    0.37312   1.00
H1       0.87313    0.76120    0.45688   1.00
C2       0.91500    0.76780    0.41500   1.00
C2       0.76780    0.41500    0.41500   1.00
C3a      0.74720    0.43970    0.43970   1.00
C3a      0.74720    0.39030    0.39030   1.00
H1       0.76120    0.45688    0.45687   1.00
H1       0.76120    0.37312    0.37313   1.00
C3a      0.70630    0.43995    0.43995   1.00
C3a      0.70630    0.39005    0.39005   1.00
H11      0.69250    0.45717    0.45717   1.00
H12      0.69250    0.37283    0.37283   1.00
C4       0.68560    0.41500    0.41500   1.00
C4       0.64440    0.41500    0.41500   1.00
C3a      0.62370    0.39005    0.39005   1.00
C3a      0.62370    0.43995    0.43995   1.00
H13      0.63750    0.37283    0.37283   1.00
H14      0.63750    0.45717    0.45717   1.00
C3a      0.58280    0.39030    0.39030   1.00
C3a      0.58280    0.43970    0.43970   1.00
H1       0.56880    0.37312    0.37313   1.00
H1       0.56880    0.45688    0.45687   1.00
C2       0.56220    0.41500    0.41500   1.00
C2       1.06220    0.41500    0.41500   1.00
C3a      1.08280    0.43970    0.39030   1.00
C3a      1.08280    0.39030    0.43970   1.00
H1       1.06880    0.45688    0.37313   1.00
H1       1.06880    0.37312    0.45687   1.00
C3a      1.12370    0.43995    0.39005   1.00
C3a      1.12370    0.39005    0.43995   1.00
H11      1.13750    0.45717    0.37283   1.00
H12      1.13750    0.37283    0.45717   1.00
C4       1.14440    0.41500    0.41500   1.00
C4       0.18560    0.41500    0.41500   1.00
C3a      0.20630    0.39005    0.43995   1.00
C3a      0.20630    0.43995    0.39005   1.00
H13      0.19250    0.37283    0.45717   1.00
H14      0.19250    0.45717    0.37283   1.00
C3a      0.24720    0.39030    0.43970   1.00
C3a      0.24720    0.43970    0.39030   1.00
H1       0.26120    0.37312    0.45687   1.00
H1       0.26120    0.45688    0.37313   1.00
C2       0.26780    0.41500    0.41500   1.00
C2       0.91500    0.26780    0.41500   1.00
C3a      0.93970    0.24720    0.43970   1.00
C3a      0.89030    0.24720    0.39030   1.00
H1       0.95687    0.26120    0.45688   1.00
H1       0.87313    0.26120    0.37312   1.00
C3a      0.93995    0.20630    0.43995   1.00
C3a      0.89005    0.20630    0.39005   1.00
H11      0.95717    0.19250    0.45717   1.00
H12      0.87283    0.19250    0.37283   1.00
C4       0.91500    0.18560    0.41500   1.00
C4       0.91500    1.14440    0.41500   1.00
C3a      0.89005    1.12370    0.39005   1.00
C3a      0.93995    1.12370    0.43995   1.00
H13      0.87283    1.13750    0.37283   1.00
H14      0.95717    1.13750    0.45717   1.00
C3a      0.89030    1.08280    0.39030   1.00
C3a      0.93970    1.08280    0.43970   1.00
H1       0.87313    1.06880    0.37312   1.00
H1       0.95687    1.06880    0.45688   1.00
C2       0.91500    1.06220    0.41500   1.00
C2       0.91500    0.41500    0.26780   1.00
C3a      0.93970    0.43970    0.24720   1.00
C3a      0.89030    0.39030    0.24720   1.00
H1       0.95688    0.45687    0.26120   1.00
H1       0.87312    0.37313    0.26120   1.00
C3a      0.93995    0.43995    0.20630   1.00
C3a      0.89005    0.39005    0.20630   1.00
H11      0.95717    0.45717    0.19250   1.00
H12      0.87283    0.37283    0.19250   1.00
C4       0.91500    0.41500    0.18560   1.00
C4       0.91500    0.41500    1.14440   1.00
C3a      0.89005    0.39005    1.12370   1.00
C3a      0.93995    0.43995    1.12370   1.00
H13      0.87283    0.37283    1.13750   1.00
H14      0.95717    0.45717    1.13750   1.00
C3a      0.89030    0.39030    1.08280   1.00
C3a      0.93970    0.43970    1.08280   1.00
H1       0.87312    0.37313    1.06880   1.00
H1       0.95688    0.45687    1.06880   1.00
C2       0.91500    0.41500    1.06220   1.00
