data_IRMOF10_SG202_interpen_Ligand1cp_label_j.

_audit_creation_method             'generated by an auxiliary program of Tobunporous'

_symmetry_space_group_name_H-M     'P 1'
_symmetry_Int_Tables_number        1
_symmetry_cell_setting             triclinic

_cell_length_a                    34.2800
_cell_length_b                    34.2800
_cell_length_c                    34.2800
_cell_angle_alpha                 90.0000
_cell_angle_beta                  90.0000
_cell_angle_gamma                 90.0000

loop_
_atom_site_label
_atom_site_fract_x
_atom_site_fract_y
_atom_site_fract_z
_atom_site_occupancy
O1       0.75000    0.75000    0.75000   1.00
Zn1      0.71720    0.78280    0.78280   1.00
Zn1      0.78280    0.71720    0.78280   1.00
Zn1      0.78280    0.78280    0.71720   1.00
Zn1      0.71720    0.71720    0.71720   1.00
O2       0.72650    0.77350    0.83820   1.00
O2       0.72650    0.83820    0.77350   1.00
O2       0.66180    0.77350    0.77350   1.00
O2       0.77350    0.72650    0.83820   1.00
O2       0.83820    0.72650    0.77350   1.00
O2       0.77350    0.66180    0.77350   1.00
O2       0.77350    0.83820    0.72650   1.00
O2       0.83820    0.77350    0.72650   1.00
O2       0.77350    0.77350    0.66180   1.00
O2       0.66180    0.72650    0.72650   1.00
O2       0.72650    0.66180    0.72650   1.00
O2       0.72650    0.72650    0.66180   1.00
C1       0.75000    0.75000    0.85520   1.00
C1       0.75000    0.85520    0.75000   1.00
C1       0.64480    0.75000    0.75000   1.00
C1       0.85520    0.75000    0.75000   1.00
C1       0.75000    0.64480    0.75000   1.00
C1       0.75000    0.75000    0.64480   1.00
O1       0.25000    0.25000    0.75000   1.00
Zn1      0.21720    0.28280    0.78280   1.00
Zn1      0.28280    0.21720    0.78280   1.00
Zn1      0.28280    0.28280    0.71720   1.00
Zn1      0.21720    0.21720    0.71720   1.00
O2       0.22650    0.27350    0.83820   1.00
O2       0.22650    0.33820    0.77350   1.00
O2       0.16180    0.27350    0.77350   1.00
O2       0.27350    0.22650    0.83820   1.00
O2       0.33820    0.22650    0.77350   1.00
O2       0.27350    0.16180    0.77350   1.00
O2       0.27350    0.33820    0.72650   1.00
O2       0.33820    0.27350    0.72650   1.00
O2       0.27350    0.27350    0.66180   1.00
O2       0.16180    0.22650    0.72650   1.00
O2       0.22650    0.16180    0.72650   1.00
O2       0.22650    0.22650    0.66180   1.00
C1       0.25000    0.25000    0.85520   1.00
C1       0.25000    0.35520    0.75000   1.00
C1       0.14480    0.25000    0.75000   1.00
C1       0.35520    0.25000    0.75000   1.00
C1       0.25000    0.14480    0.75000   1.00
C1       0.25000    0.25000    0.64480   1.00
O1       0.25000    0.75000    0.25000   1.00
Zn1      0.21720    0.78280    0.28280   1.00
Zn1      0.28280    0.71720    0.28280   1.00
Zn1      0.28280    0.78280    0.21720   1.00
Zn1      0.21720    0.71720    0.21720   1.00
O2       0.22650    0.77350    0.33820   1.00
O2       0.22650    0.83820    0.27350   1.00
O2       0.16180    0.77350    0.27350   1.00
O2       0.27350    0.72650    0.33820   1.00
O2       0.33820    0.72650    0.27350   1.00
O2       0.27350    0.66180    0.27350   1.00
O2       0.27350    0.83820    0.22650   1.00
O2       0.33820    0.77350    0.22650   1.00
O2       0.27350    0.77350    0.16180   1.00
O2       0.16180    0.72650    0.22650   1.00
O2       0.22650    0.66180    0.22650   1.00
O2       0.22650    0.72650    0.16180   1.00
C1       0.25000    0.75000    0.35520   1.00
C1       0.25000    0.85520    0.25000   1.00
C1       0.14480    0.75000    0.25000   1.00
C1       0.35520    0.75000    0.25000   1.00
C1       0.25000    0.64480    0.25000   1.00
C1       0.25000    0.75000    0.14480   1.00
O1       0.75000    0.25000    0.25000   1.00
Zn1      0.71720    0.28280    0.28280   1.00
Zn1      0.78280    0.21720    0.28280   1.00
Zn1      0.78280    0.28280    0.21720   1.00
Zn1      0.71720    0.21720    0.21720   1.00
O2       0.72650    0.27350    0.33820   1.00
O2       0.72650    0.33820    0.27350   1.00
O2       0.66180    0.27350    0.27350   1.00
O2       0.77350    0.22650    0.33820   1.00
O2       0.83820    0.22650    0.27350   1.00
O2       0.77350    0.16180    0.27350   1.00
O2       0.77350    0.33820    0.22650   1.00
O2       0.83820    0.27350    0.22650   1.00
O2       0.77350    0.27350    0.16180   1.00
O2       0.66180    0.22650    0.22650   1.00
O2       0.72650    0.16180    0.22650   1.00
O2       0.72650    0.22650    0.16180   1.00
C1       0.75000    0.25000    0.35520   1.00
C1       0.75000    0.35520    0.25000   1.00
C1       0.64480    0.25000    0.25000   1.00
C1       0.85520    0.25000    0.25000   1.00
C1       0.75000    0.14480    0.25000   1.00
C1       0.75000    0.25000    0.14480   1.00
O1       0.25000    0.25000    0.25000   1.00
Zn1      0.28280    0.21720    0.21720   1.00
Zn1      0.21720    0.28280    0.21720   1.00
Zn1      0.21720    0.21720    0.28280   1.00
Zn1      0.28280    0.28280    0.28280   1.00
O2       0.27350    0.22650    0.16180   1.00
O2       0.27350    0.16180    0.22650   1.00
O2       0.33820    0.22650    0.22650   1.00
O2       0.22650    0.27350    0.16180   1.00
O2       0.16180    0.27350    0.22650   1.00
O2       0.22650    0.33820    0.22650   1.00
O2       0.22650    0.16180    0.27350   1.00
O2       0.16180    0.22650    0.27350   1.00
O2       0.22650    0.22650    0.33820   1.00
O2       0.33820    0.27350    0.27350   1.00
O2       0.27350    0.33820    0.27350   1.00
O2       0.27350    0.27350    0.33820   1.00
C1       0.25000    0.25000    0.14480   1.00
C1       0.25000    0.14480    0.25000   1.00
C1       0.35520    0.25000    0.25000   1.00
C1       0.14480    0.25000    0.25000   1.00
C1       0.25000    0.35520    0.25000   1.00
C1       0.25000    0.25000    0.35520   1.00
O1       0.75000    0.75000    0.25000   1.00
Zn1      0.78280    0.71720    0.21720   1.00
Zn1      0.71720    0.78280    0.21720   1.00
Zn1      0.71720    0.71720    0.28280   1.00
Zn1      0.78280    0.78280    0.28280   1.00
O2       0.77350    0.72650    0.16180   1.00
O2       0.77350    0.66180    0.22650   1.00
O2       0.83820    0.72650    0.22650   1.00
O2       0.72650    0.77350    0.16180   1.00
O2       0.66180    0.77350    0.22650   1.00
O2       0.72650    0.83820    0.22650   1.00
O2       0.72650    0.66180    0.27350   1.00
O2       0.66180    0.72650    0.27350   1.00
O2       0.72650    0.72650    0.33820   1.00
O2       0.83820    0.77350    0.27350   1.00
O2       0.77350    0.83820    0.27350   1.00
O2       0.77350    0.77350    0.33820   1.00
C1       0.75000    0.75000    0.14480   1.00
C1       0.75000    0.64480    0.25000   1.00
C1       0.85520    0.75000    0.25000   1.00
C1       0.64480    0.75000    0.25000   1.00
C1       0.75000    0.85520    0.25000   1.00
C1       0.75000    0.75000    0.35520   1.00
O1       0.75000    0.25000    0.75000   1.00
Zn1      0.78280    0.21720    0.71720   1.00
Zn1      0.71720    0.28280    0.71720   1.00
Zn1      0.71720    0.21720    0.78280   1.00
Zn1      0.78280    0.28280    0.78280   1.00
O2       0.77350    0.22650    0.66180   1.00
O2       0.77350    0.16180    0.72650   1.00
O2       0.83820    0.22650    0.72650   1.00
O2       0.72650    0.27350    0.66180   1.00
O2       0.66180    0.27350    0.72650   1.00
O2       0.72650    0.33820    0.72650   1.00
O2       0.72650    0.16180    0.77350   1.00
O2       0.66180    0.22650    0.77350   1.00
O2       0.72650    0.22650    0.83820   1.00
O2       0.83820    0.27350    0.77350   1.00
O2       0.77350    0.33820    0.77350   1.00
O2       0.77350    0.27350    0.83820   1.00
C1       0.75000    0.25000    0.64480   1.00
C1       0.75000    0.14480    0.75000   1.00
C1       0.85520    0.25000    0.75000   1.00
C1       0.64480    0.25000    0.75000   1.00
C1       0.75000    0.35520    0.75000   1.00
C1       0.75000    0.25000    0.85520   1.00
O1       0.25000    0.75000    0.75000   1.00
Zn1      0.28280    0.71720    0.71720   1.00
Zn1      0.21720    0.78280    0.71720   1.00
Zn1      0.21720    0.71720    0.78280   1.00
Zn1      0.28280    0.78280    0.78280   1.00
O2       0.27350    0.72650    0.66180   1.00
O2       0.27350    0.66180    0.72650   1.00
O2       0.33820    0.72650    0.72650   1.00
O2       0.22650    0.77350    0.66180   1.00
O2       0.16180    0.77350    0.72650   1.00
O2       0.22650    0.83820    0.72650   1.00
O2       0.22650    0.66180    0.77350   1.00
O2       0.16180    0.72650    0.77350   1.00
O2       0.22650    0.72650    0.83820   1.00
O2       0.33820    0.77350    0.77350   1.00
O2       0.27350    0.83820    0.77350   1.00
O2       0.27350    0.77350    0.83820   1.00
C1       0.25000    0.75000    0.64480   1.00
C1       0.25000    0.64480    0.75000   1.00
C1       0.35520    0.75000    0.75000   1.00
C1       0.14480    0.75000    0.75000   1.00
C1       0.25000    0.85520    0.75000   1.00
C1       0.25000    0.75000    0.85520   1.00
O1       0.91500    0.91500    0.91500   1.00
Zn1      0.88220    0.94780    0.94780   1.00
Zn1      0.94780    0.88220    0.94780   1.00
Zn1      0.94780    0.94780    0.88220   1.00
Zn1      0.88220    0.88220    0.88220   1.00
O2       0.89150    0.93850    1.00320   1.00
O2       0.89150    1.00320    0.93850   1.00
O2       0.82680    0.93850    0.93850   1.00
O2       0.93850    0.89150    1.00320   1.00
O2       1.00320    0.89150    0.93850   1.00
O2       0.93850    0.82680    0.93850   1.00
O2       0.93850    1.00320    0.89150   1.00
O2       1.00320    0.93850    0.89150   1.00
O2       0.93850    0.93850    0.82680   1.00
O2       0.82680    0.89150    0.89150   1.00
O2       0.89150    0.82680    0.89150   1.00
O2       0.89150    0.89150    0.82680   1.00
C1       0.91500    0.91500    1.02020   1.00
C1       0.91500    1.02020    0.91500   1.00
C1       0.80980    0.91500    0.91500   1.00
C1       1.02020    0.91500    0.91500   1.00
C1       0.91500    0.80980    0.91500   1.00
C1       0.91500    0.91500    0.80980   1.00
O1       0.41500    0.41500    0.91500   1.00
Zn1      0.38220    0.44780    0.94780   1.00
Zn1      0.44780    0.38220    0.94780   1.00
Zn1      0.44780    0.44780    0.88220   1.00
Zn1      0.38220    0.38220    0.88220   1.00
O2       0.39150    0.43850    1.00320   1.00
O2       0.39150    0.50320    0.93850   1.00
O2       0.32680    0.43850    0.93850   1.00
O2       0.43850    0.39150    1.00320   1.00
O2       0.50320    0.39150    0.93850   1.00
O2       0.43850    0.32680    0.93850   1.00
O2       0.43850    0.50320    0.89150   1.00
O2       0.50320    0.43850    0.89150   1.00
O2       0.43850    0.43850    0.82680   1.00
O2       0.32680    0.39150    0.89150   1.00
O2       0.39150    0.32680    0.89150   1.00
O2       0.39150    0.39150    0.82680   1.00
C1       0.41500    0.41500    1.02020   1.00
C1       0.41500    0.52020    0.91500   1.00
C1       0.30980    0.41500    0.91500   1.00
C1       0.52020    0.41500    0.91500   1.00
C1       0.41500    0.30980    0.91500   1.00
C1       0.41500    0.41500    0.80980   1.00
O1       0.41500    0.91500    0.41500   1.00
Zn1      0.38220    0.94780    0.44780   1.00
Zn1      0.44780    0.88220    0.44780   1.00
Zn1      0.44780    0.94780    0.38220   1.00
Zn1      0.38220    0.88220    0.38220   1.00
O2       0.39150    0.93850    0.50320   1.00
O2       0.39150    1.00320    0.43850   1.00
O2       0.32680    0.93850    0.43850   1.00
O2       0.43850    0.89150    0.50320   1.00
O2       0.50320    0.89150    0.43850   1.00
O2       0.43850    0.82680    0.43850   1.00
O2       0.43850    1.00320    0.39150   1.00
O2       0.50320    0.93850    0.39150   1.00
O2       0.43850    0.93850    0.32680   1.00
O2       0.32680    0.89150    0.39150   1.00
O2       0.39150    0.82680    0.39150   1.00
O2       0.39150    0.89150    0.32680   1.00
C1       0.41500    0.91500    0.52020   1.00
C1       0.41500    1.02020    0.41500   1.00
C1       0.30980    0.91500    0.41500   1.00
C1       0.52020    0.91500    0.41500   1.00
C1       0.41500    0.80980    0.41500   1.00
C1       0.41500    0.91500    0.30980   1.00
O1       0.91500    0.41500    0.41500   1.00
Zn1      0.88220    0.44780    0.44780   1.00
Zn1      0.94780    0.38220    0.44780   1.00
Zn1      0.94780    0.44780    0.38220   1.00
Zn1      0.88220    0.38220    0.38220   1.00
O2       0.89150    0.43850    0.50320   1.00
O2       0.89150    0.50320    0.43850   1.00
O2       0.82680    0.43850    0.43850   1.00
O2       0.93850    0.39150    0.50320   1.00
O2       1.00320    0.39150    0.43850   1.00
O2       0.93850    0.32680    0.43850   1.00
O2       0.93850    0.50320    0.39150   1.00
O2       1.00320    0.43850    0.39150   1.00
O2       0.93850    0.43850    0.32680   1.00
O2       0.82680    0.39150    0.39150   1.00
O2       0.89150    0.32680    0.39150   1.00
O2       0.89150    0.39150    0.32680   1.00
C1       0.91500    0.41500    0.52020   1.00
C1       0.91500    0.52020    0.41500   1.00
C1       0.80980    0.41500    0.41500   1.00
C1       1.02020    0.41500    0.41500   1.00
C1       0.91500    0.30980    0.41500   1.00
C1       0.91500    0.41500    0.30980   1.00
O1       0.41500    0.41500    0.41500   1.00
Zn1      0.44780    0.38220    0.38220   1.00
Zn1      0.38220    0.44780    0.38220   1.00
Zn1      0.38220    0.38220    0.44780   1.00
Zn1      0.44780    0.44780    0.44780   1.00
O2       0.43850    0.39150    0.32680   1.00
O2       0.43850    0.32680    0.39150   1.00
O2       0.50320    0.39150    0.39150   1.00
O2       0.39150    0.43850    0.32680   1.00
O2       0.32680    0.43850    0.39150   1.00
O2       0.39150    0.50320    0.39150   1.00
O2       0.39150    0.32680    0.43850   1.00
O2       0.32680    0.39150    0.43850   1.00
O2       0.39150    0.39150    0.50320   1.00
O2       0.50320    0.43850    0.43850   1.00
O2       0.43850    0.50320    0.43850   1.00
O2       0.43850    0.43850    0.50320   1.00
C1       0.41500    0.41500    0.30980   1.00
C1       0.41500    0.30980    0.41500   1.00
C1       0.52020    0.41500    0.41500   1.00
C1       0.30980    0.41500    0.41500   1.00
C1       0.41500    0.52020    0.41500   1.00
C1       0.41500    0.41500    0.52020   1.00
O1       0.91500    0.91500    0.41500   1.00
Zn1      0.94780    0.88220    0.38220   1.00
Zn1      0.88220    0.94780    0.38220   1.00
Zn1      0.88220    0.88220    0.44780   1.00
Zn1      0.94780    0.94780    0.44780   1.00
O2       0.93850    0.89150    0.32680   1.00
O2       0.93850    0.82680    0.39150   1.00
O2       1.00320    0.89150    0.39150   1.00
O2       0.89150    0.93850    0.32680   1.00
O2       0.82680    0.93850    0.39150   1.00
O2       0.89150    1.00320    0.39150   1.00
O2       0.89150    0.82680    0.43850   1.00
O2       0.82680    0.89150    0.43850   1.00
O2       0.89150    0.89150    0.50320   1.00
O2       1.00320    0.93850    0.43850   1.00
O2       0.93850    1.00320    0.43850   1.00
O2       0.93850    0.93850    0.50320   1.00
C1       0.91500    0.91500    0.30980   1.00
C1       0.91500    0.80980    0.41500   1.00
C1       1.02020    0.91500    0.41500   1.00
C1       0.80980    0.91500    0.41500   1.00
C1       0.91500    1.02020    0.41500   1.00
C1       0.91500    0.91500    0.52020   1.00
O1       0.91500    0.41500    0.91500   1.00
Zn1      0.94780    0.38220    0.88220   1.00
Zn1      0.88220    0.44780    0.88220   1.00
Zn1      0.88220    0.38220    0.94780   1.00
Zn1      0.94780    0.44780    0.94780   1.00
O2       0.93850    0.39150    0.82680   1.00
O2       0.93850    0.32680    0.89150   1.00
O2       1.00320    0.39150    0.89150   1.00
O2       0.89150    0.43850    0.82680   1.00
O2       0.82680    0.43850    0.89150   1.00
O2       0.89150    0.50320    0.89150   1.00
O2       0.89150    0.32680    0.93850   1.00
O2       0.82680    0.39150    0.93850   1.00
O2       0.89150    0.39150    1.00320   1.00
O2       1.00320    0.43850    0.93850   1.00
O2       0.93850    0.50320    0.93850   1.00
O2       0.93850    0.43850    1.00320   1.00
C1       0.91500    0.41500    0.80980   1.00
C1       0.91500    0.30980    0.91500   1.00
C1       1.02020    0.41500    0.91500   1.00
C1       0.80980    0.41500    0.91500   1.00
C1       0.91500    0.52020    0.91500   1.00
C1       0.91500    0.41500    1.02020   1.00
O1       0.41500    0.91500    0.91500   1.00
Zn1      0.44780    0.88220    0.88220   1.00
Zn1      0.38220    0.94780    0.88220   1.00
Zn1      0.38220    0.88220    0.94780   1.00
Zn1      0.44780    0.94780    0.94780   1.00
O2       0.43850    0.89150    0.82680   1.00
O2       0.43850    0.82680    0.89150   1.00
O2       0.50320    0.89150    0.89150   1.00
O2       0.39150    0.93850    0.82680   1.00
O2       0.32680    0.93850    0.89150   1.00
O2       0.39150    1.00320    0.89150   1.00
O2       0.39150    0.82680    0.93850   1.00
O2       0.32680    0.89150    0.93850   1.00
O2       0.39150    0.89150    1.00320   1.00
O2       0.50320    0.93850    0.93850   1.00
O2       0.43850    1.00320    0.93850   1.00
O2       0.43850    0.93850    1.00320   1.00
C1       0.41500    0.91500    0.80980   1.00
C1       0.41500    0.80980    0.91500   1.00
C1       0.52020    0.91500    0.91500   1.00
C1       0.30980    0.91500    0.91500   1.00
C1       0.41500    1.02020    0.91500   1.00
C1       0.41500    0.91500    1.02020   1.00
C5       0.87591    0.76670    1.13227   1.00
H2       0.86261    0.79198    1.14755   1.00
H2       0.89690    0.77924    1.11099   1.00
C5       0.89749    0.74065    1.16219   1.00
H2       0.92690    0.75271    1.16890   1.00
H2       0.90082    0.71057    1.15040   1.00
O_3      0.77115    0.68248    0.98000   1.00
C4       0.74975    0.75037    1.02100   1.00
C3c      0.78288    0.76141    1.04243   1.00
H1       0.80908    0.77027    1.02725   1.00
C3d      0.71573    0.73947    1.04135   1.00
C3       0.78301    0.76071    1.08354   1.00
O2       0.81476    0.77641    1.10248   1.00
C3       0.71600    0.73802    1.08227   1.00
H1       0.68968    0.72815    1.09657   1.00
C2       0.74940    0.74869    1.10439   1.00
C5       0.74095    0.65448    0.97879   1.00
H2       0.73380    0.64542    0.94838   1.00
H2       0.71380    0.66591    0.99266   1.00
C5       0.75480    0.61883    1.00122   1.00
H2       0.76299    0.62808    1.03129   1.00
H2       0.78170    0.60745    0.98691   1.00
C5       0.72304    0.58732    1.00254   1.00
H2       0.71452    0.57814    0.97260   1.00
H2       0.69665    0.59821    1.01803   1.00
H2       0.73399    0.56116    1.01830   1.00
C5       0.65916    0.75711    1.01105   1.00
C5       0.84224    0.74675    1.11070   1.00
H2       0.67448    0.77741    0.99088   1.00
H2       0.64918    0.77387    1.03712   1.00
H2       0.85293    0.73338    1.08300   1.00
H2       0.82968    0.72277    1.12895   1.00
H2       0.88140    0.73938    1.19055   1.00
H2       0.61758    0.78314    0.94250   1.00
H2       0.59331    0.79676    0.98766   1.00
C2       0.74893    0.74766    0.89605   1.00
C3       0.74010    0.78263    0.91597   1.00
O2       0.72194    0.81298    0.89674   1.00
C3       0.75979    0.71459    0.91826   1.00
H1       0.76770    0.68768    0.90385   1.00
C3a      0.74130    0.78351    0.95713   1.00
H1       0.73231    0.80984    0.97202   1.00
C3b      0.75974    0.71522    0.95922   1.00
C4       0.75038    0.74982    0.97900   1.00
O_3      0.68334    0.72553    1.02167   1.00
C5       0.74933    0.84221    0.88720   1.00
H2       0.76374    0.85408    0.91391   1.00
C5       0.72691    0.87493    0.86666   1.00
H2       0.77227    0.83062    0.86726   1.00
H2       0.71207    0.89298    0.88923   1.00
H2       0.70343    0.86104    0.84899   1.00
C5       0.75322    0.90060    0.84069   1.00
H2       0.77821    0.91171    0.85811   1.00
H2       0.73660    0.92592    0.82891   1.00
H2       0.76440    0.88396    0.81494   1.00
C5       0.62368    0.74038    0.99020   1.00
H2       0.60483    0.72562    1.01218   1.00
H2       0.63389    0.71743    0.96955   1.00
C5       0.60071    0.77198    0.96803   1.00
H2       0.57299    0.75957    0.95666   1.00
C5       0.76670    1.13227    0.87591   1.00
H2       0.79198    1.14755    0.86261   1.00
H2       0.77924    1.11099    0.89690   1.00
C5       0.74065    1.16219    0.89749   1.00
H2       0.75271    1.16890    0.92690   1.00
H2       0.71057    1.15040    0.90082   1.00
O_3      0.68248    0.98000    0.77115   1.00
C4       0.75037    1.02100    0.74975   1.00
C3c      0.76141    1.04243    0.78288   1.00
H1       0.77027    1.02725    0.80908   1.00
C3d      0.73947    1.04135    0.71573   1.00
C3       0.76071    1.08354    0.78301   1.00
O2       0.77641    1.10248    0.81476   1.00
C3       0.73802    1.08227    0.71600   1.00
H1       0.72815    1.09657    0.68968   1.00
C2       0.74869    1.10439    0.74940   1.00
C5       0.65448    0.97879    0.74095   1.00
H2       0.64542    0.94838    0.73380   1.00
H2       0.66591    0.99266    0.71380   1.00
C5       0.61883    1.00122    0.75480   1.00
H2       0.62808    1.03129    0.76299   1.00
H2       0.60745    0.98691    0.78170   1.00
C5       0.58732    1.00254    0.72304   1.00
H2       0.57814    0.97260    0.71452   1.00
H2       0.59821    1.01803    0.69665   1.00
H2       0.56116    1.01830    0.73399   1.00
C5       0.75711    1.01105    0.65916   1.00
C5       0.74675    1.11070    0.84224   1.00
H2       0.77741    0.99088    0.67448   1.00
H2       0.77387    1.03712    0.64918   1.00
H2       0.73338    1.08300    0.85293   1.00
H2       0.72277    1.12895    0.82968   1.00
H2       0.73938    1.19055    0.88140   1.00
H2       0.78314    0.94250    0.61758   1.00
H2       0.79676    0.98766    0.59331   1.00
C2       0.74766    0.89605    0.74893   1.00
C3       0.78263    0.91597    0.74010   1.00
O2       0.81298    0.89674    0.72194   1.00
C3       0.71459    0.91826    0.75979   1.00
H1       0.68768    0.90385    0.76770   1.00
C3a      0.78351    0.95713    0.74130   1.00
H1       0.80984    0.97202    0.73231   1.00
C3b      0.71522    0.95922    0.75974   1.00
C4       0.74982    0.97900    0.75038   1.00
O_3      0.72553    1.02167    0.68334   1.00
C5       0.84221    0.88720    0.74933   1.00
H2       0.85408    0.91391    0.76374   1.00
C5       0.87493    0.86666    0.72691   1.00
H2       0.83062    0.86726    0.77227   1.00
H2       0.89298    0.88923    0.71207   1.00
H2       0.86104    0.84899    0.70343   1.00
C5       0.90060    0.84069    0.75322   1.00
H2       0.91171    0.85811    0.77821   1.00
H2       0.92592    0.82891    0.73660   1.00
H2       0.88396    0.81494    0.76440   1.00
C5       0.74038    0.99020    0.62368   1.00
H2       0.72562    1.01218    0.60483   1.00
H2       0.71743    0.96955    0.63389   1.00
C5       0.77198    0.96803    0.60071   1.00
H2       0.75957    0.95666    0.57299   1.00
C5       0.36773    0.87591    0.73330   1.00
H2       0.35245    0.86261    0.70802   1.00
H2       0.38901    0.89690    0.72076   1.00
C5       0.33781    0.89749    0.75935   1.00
H2       0.33110    0.92690    0.74729   1.00
H2       0.34960    0.90082    0.78943   1.00
O_3      0.52000    0.77115    0.81752   1.00
C4       0.47900    0.74975    0.74963   1.00
C3c      0.45757    0.78288    0.73859   1.00
H1       0.47275    0.80908    0.72973   1.00
C3d      0.45865    0.71573    0.76053   1.00
C3       0.41646    0.78301    0.73929   1.00
O2       0.39752    0.81476    0.72359   1.00
C3       0.41773    0.71600    0.76198   1.00
H1       0.40343    0.68968    0.77185   1.00
C2       0.39561    0.74940    0.75131   1.00
C5       0.52121    0.74095    0.84552   1.00
H2       0.55162    0.73380    0.85458   1.00
H2       0.50734    0.71380    0.83409   1.00
C5       0.49878    0.75480    0.88117   1.00
H2       0.46871    0.76299    0.87192   1.00
H2       0.51309    0.78170    0.89255   1.00
C5       0.49746    0.72304    0.91268   1.00
H2       0.52740    0.71452    0.92186   1.00
H2       0.48197    0.69665    0.90179   1.00
H2       0.48170    0.73399    0.93884   1.00
C5       0.48895    0.65916    0.74289   1.00
C5       0.38930    0.84224    0.75325   1.00
H2       0.50912    0.67448    0.72259   1.00
H2       0.46288    0.64918    0.72613   1.00
H2       0.41700    0.85293    0.76662   1.00
H2       0.37105    0.82968    0.77723   1.00
H2       0.30945    0.88140    0.76062   1.00
H2       0.55750    0.61758    0.71686   1.00
H2       0.51234    0.59331    0.70324   1.00
C2       0.60395    0.74893    0.75234   1.00
C3       0.58403    0.74010    0.71737   1.00
O2       0.60326    0.72194    0.68702   1.00
C3       0.58174    0.75979    0.78541   1.00
H1       0.59615    0.76770    0.81232   1.00
C3a      0.54287    0.74130    0.71649   1.00
H1       0.52798    0.73231    0.69016   1.00
C3b      0.54078    0.75974    0.78478   1.00
C4       0.52100    0.75038    0.75018   1.00
O_3      0.47833    0.68334    0.77447   1.00
C5       0.61280    0.74933    0.65779   1.00
H2       0.58609    0.76374    0.64592   1.00
C5       0.63334    0.72691    0.62507   1.00
H2       0.63274    0.77227    0.66938   1.00
H2       0.61077    0.71207    0.60702   1.00
H2       0.65101    0.70343    0.63896   1.00
C5       0.65931    0.75322    0.59940   1.00
H2       0.64189    0.77821    0.58829   1.00
H2       0.67109    0.73660    0.57408   1.00
H2       0.68506    0.76440    0.61604   1.00
C5       0.50980    0.62368    0.75962   1.00
H2       0.48782    0.60483    0.77438   1.00
H2       0.53045    0.63389    0.78257   1.00
C5       0.53197    0.60071    0.72802   1.00
H2       0.54334    0.57299    0.74043   1.00
C5       1.13227    0.87591    0.76670   1.00
H2       1.14755    0.86261    0.79198   1.00
H2       1.11099    0.89690    0.77924   1.00
C5       1.16219    0.89749    0.74065   1.00
H2       1.16890    0.92690    0.75271   1.00
H2       1.15040    0.90082    0.71057   1.00
O_3      0.98000    0.77115    0.68248   1.00
C4       1.02100    0.74975    0.75037   1.00
C3c      1.04243    0.78288    0.76141   1.00
H1       1.02725    0.80908    0.77027   1.00
C3d      1.04135    0.71573    0.73947   1.00
C3       1.08354    0.78301    0.76071   1.00
O2       1.10248    0.81476    0.77641   1.00
C3       1.08227    0.71600    0.73802   1.00
H1       1.09657    0.68968    0.72815   1.00
C2       1.10439    0.74940    0.74869   1.00
C5       0.97879    0.74095    0.65448   1.00
H2       0.94838    0.73380    0.64542   1.00
H2       0.99266    0.71380    0.66591   1.00
C5       1.00122    0.75480    0.61883   1.00
H2       1.03129    0.76299    0.62808   1.00
H2       0.98691    0.78170    0.60745   1.00
C5       1.00254    0.72304    0.58732   1.00
H2       0.97260    0.71452    0.57814   1.00
H2       1.01803    0.69665    0.59821   1.00
H2       1.01830    0.73399    0.56116   1.00
C5       1.01105    0.65916    0.75711   1.00
C5       1.11070    0.84224    0.74675   1.00
H2       0.99088    0.67448    0.77741   1.00
H2       1.03712    0.64918    0.77387   1.00
H2       1.08300    0.85293    0.73338   1.00
H2       1.12895    0.82968    0.72277   1.00
H2       1.19055    0.88140    0.73938   1.00
H2       0.94250    0.61758    0.78314   1.00
H2       0.98766    0.59331    0.79676   1.00
C2       0.89605    0.74893    0.74766   1.00
C3       0.91597    0.74010    0.78263   1.00
O2       0.89674    0.72194    0.81298   1.00
C3       0.91826    0.75979    0.71459   1.00
H1       0.90385    0.76770    0.68768   1.00
C3a      0.95713    0.74130    0.78351   1.00
H1       0.97202    0.73231    0.80984   1.00
C3b      0.95922    0.75974    0.71522   1.00
C4       0.97900    0.75038    0.74982   1.00
O_3      1.02167    0.68334    0.72553   1.00
C5       0.88720    0.74933    0.84221   1.00
H2       0.91391    0.76374    0.85408   1.00
C5       0.86666    0.72691    0.87493   1.00
H2       0.86726    0.77227    0.83062   1.00
H2       0.88923    0.71207    0.89298   1.00
H2       0.84899    0.70343    0.86104   1.00
C5       0.84069    0.75322    0.90060   1.00
H2       0.85811    0.77821    0.91171   1.00
H2       0.82891    0.73660    0.92592   1.00
H2       0.81494    0.76440    0.88396   1.00
C5       0.99020    0.62368    0.74038   1.00
H2       1.01218    0.60483    0.72562   1.00
H2       0.96955    0.63389    0.71743   1.00
C5       0.96803    0.60071    0.77198   1.00
H2       0.95666    0.57299    0.75957   1.00
C5       0.73330    0.36773    0.87591   1.00
H2       0.70802    0.35245    0.86261   1.00
H2       0.72076    0.38901    0.89690   1.00
C5       0.75935    0.33781    0.89749   1.00
H2       0.74729    0.33110    0.92690   1.00
H2       0.78943    0.34960    0.90082   1.00
O_3      0.81752    0.52000    0.77115   1.00
C4       0.74963    0.47900    0.74975   1.00
C3c      0.73859    0.45757    0.78288   1.00
H1       0.72973    0.47275    0.80908   1.00
C3d      0.76053    0.45865    0.71573   1.00
C3       0.73929    0.41646    0.78301   1.00
O2       0.72359    0.39752    0.81476   1.00
C3       0.76198    0.41773    0.71600   1.00
H1       0.77185    0.40343    0.68968   1.00
C2       0.75131    0.39561    0.74940   1.00
C5       0.84552    0.52121    0.74095   1.00
H2       0.85458    0.55162    0.73380   1.00
H2       0.83409    0.50734    0.71380   1.00
C5       0.88117    0.49878    0.75480   1.00
H2       0.87192    0.46871    0.76299   1.00
H2       0.89255    0.51309    0.78170   1.00
C5       0.91268    0.49746    0.72304   1.00
H2       0.92186    0.52740    0.71452   1.00
H2       0.90179    0.48197    0.69665   1.00
H2       0.93884    0.48170    0.73399   1.00
C5       0.74289    0.48895    0.65916   1.00
C5       0.75325    0.38930    0.84224   1.00
H2       0.72259    0.50912    0.67448   1.00
H2       0.72613    0.46288    0.64918   1.00
H2       0.76662    0.41700    0.85293   1.00
H2       0.77723    0.37105    0.82968   1.00
H2       0.76062    0.30945    0.88140   1.00
H2       0.71686    0.55750    0.61758   1.00
H2       0.70324    0.51234    0.59331   1.00
C2       0.75234    0.60395    0.74893   1.00
C3       0.71737    0.58403    0.74010   1.00
O2       0.68702    0.60326    0.72194   1.00
C3       0.78541    0.58174    0.75979   1.00
H1       0.81232    0.59615    0.76770   1.00
C3a      0.71649    0.54287    0.74130   1.00
H1       0.69016    0.52798    0.73231   1.00
C3b      0.78478    0.54078    0.75974   1.00
C4       0.75018    0.52100    0.75038   1.00
O_3      0.77447    0.47833    0.68334   1.00
C5       0.65779    0.61280    0.74933   1.00
H2       0.64592    0.58609    0.76374   1.00
C5       0.62507    0.63334    0.72691   1.00
H2       0.66938    0.63274    0.77227   1.00
H2       0.60702    0.61077    0.71207   1.00
H2       0.63896    0.65101    0.70343   1.00
C5       0.59940    0.65931    0.75322   1.00
H2       0.58829    0.64189    0.77821   1.00
H2       0.57408    0.67109    0.73660   1.00
H2       0.61604    0.68506    0.76440   1.00
C5       0.75962    0.50980    0.62368   1.00
H2       0.77438    0.48782    0.60483   1.00
H2       0.78257    0.53045    0.63389   1.00
C5       0.72802    0.53197    0.60071   1.00
H2       0.74043    0.54334    0.57299   1.00
C5       0.87591    0.73330    0.36773   1.00
H2       0.86261    0.70802    0.35245   1.00
H2       0.89690    0.72076    0.38901   1.00
C5       0.89749    0.75935    0.33781   1.00
H2       0.92690    0.74729    0.33110   1.00
H2       0.90082    0.78943    0.34960   1.00
O_3      0.77115    0.81752    0.52000   1.00
C4       0.74975    0.74963    0.47900   1.00
C3c      0.78288    0.73859    0.45757   1.00
H1       0.80908    0.72973    0.47275   1.00
C3d      0.71573    0.76053    0.45865   1.00
C3       0.78301    0.73929    0.41646   1.00
O2       0.81476    0.72359    0.39752   1.00
C3       0.71600    0.76198    0.41773   1.00
H1       0.68968    0.77185    0.40343   1.00
C2       0.74940    0.75131    0.39561   1.00
C5       0.74095    0.84552    0.52121   1.00
H2       0.73380    0.85458    0.55162   1.00
H2       0.71380    0.83409    0.50734   1.00
C5       0.75480    0.88117    0.49878   1.00
H2       0.76299    0.87192    0.46871   1.00
H2       0.78170    0.89255    0.51309   1.00
C5       0.72304    0.91268    0.49746   1.00
H2       0.71452    0.92186    0.52740   1.00
H2       0.69665    0.90179    0.48197   1.00
H2       0.73399    0.93884    0.48170   1.00
C5       0.65916    0.74289    0.48895   1.00
C5       0.84224    0.75325    0.38930   1.00
H2       0.67448    0.72259    0.50912   1.00
H2       0.64918    0.72613    0.46288   1.00
H2       0.85293    0.76662    0.41700   1.00
H2       0.82968    0.77723    0.37105   1.00
H2       0.88140    0.76062    0.30945   1.00
H2       0.61758    0.71686    0.55750   1.00
H2       0.59331    0.70324    0.51234   1.00
C2       0.74893    0.75234    0.60395   1.00
C3       0.74010    0.71737    0.58403   1.00
O2       0.72194    0.68702    0.60326   1.00
C3       0.75979    0.78541    0.58174   1.00
H1       0.76770    0.81232    0.59615   1.00
C3a      0.74130    0.71649    0.54287   1.00
H1       0.73231    0.69016    0.52798   1.00
C3b      0.75974    0.78478    0.54078   1.00
C4       0.75038    0.75018    0.52100   1.00
O_3      0.68334    0.77447    0.47833   1.00
C5       0.74933    0.65779    0.61280   1.00
H2       0.76374    0.64592    0.58609   1.00
C5       0.72691    0.62507    0.63334   1.00
H2       0.77227    0.66938    0.63274   1.00
H2       0.71207    0.60702    0.61077   1.00
H2       0.70343    0.63896    0.65101   1.00
C5       0.75322    0.59940    0.65931   1.00
H2       0.77821    0.58829    0.64189   1.00
H2       0.73660    0.57408    0.67109   1.00
H2       0.76440    0.61604    0.68506   1.00
C5       0.62368    0.75962    0.50980   1.00
H2       0.60483    0.77438    0.48782   1.00
H2       0.63389    0.78257    0.53045   1.00
C5       0.60071    0.72802    0.53197   1.00
H2       0.57299    0.74043    0.54334   1.00
C5       0.37591    0.26670    1.13227   1.00
H2       0.36261    0.29198    1.14755   1.00
H2       0.39690    0.27924    1.11099   1.00
C5       0.39749    0.24065    1.16219   1.00
H2       0.42690    0.25271    1.16890   1.00
H2       0.40082    0.21057    1.15040   1.00
O_3      0.27115    0.18248    0.98000   1.00
C4       0.24975    0.25037    1.02100   1.00
C3c      0.28288    0.26141    1.04243   1.00
H1       0.30908    0.27027    1.02725   1.00
C3d      0.21573    0.23947    1.04135   1.00
C3       0.28301    0.26071    1.08354   1.00
O2       0.31476    0.27641    1.10248   1.00
C3       0.21600    0.23802    1.08227   1.00
H1       0.18968    0.22815    1.09657   1.00
C2       0.24940    0.24869    1.10439   1.00
C5       0.24095    0.15448    0.97879   1.00
H2       0.23380    0.14542    0.94838   1.00
H2       0.21380    0.16591    0.99266   1.00
C5       0.25480    0.11883    1.00122   1.00
H2       0.26299    0.12808    1.03129   1.00
H2       0.28170    0.10745    0.98691   1.00
C5       0.22304    0.08732    1.00254   1.00
H2       0.21452    0.07814    0.97260   1.00
H2       0.19665    0.09821    1.01803   1.00
H2       0.23399    0.06116    1.01830   1.00
C5       0.15916    0.25711    1.01105   1.00
C5       0.34224    0.24675    1.11070   1.00
H2       0.17448    0.27741    0.99088   1.00
H2       0.14918    0.27387    1.03712   1.00
H2       0.35293    0.23338    1.08300   1.00
H2       0.32968    0.22277    1.12895   1.00
H2       0.38140    0.23938    1.19055   1.00
H2       0.11758    0.28314    0.94250   1.00
H2       0.09331    0.29676    0.98766   1.00
C2       0.24893    0.24766    0.89605   1.00
C3       0.24010    0.28263    0.91597   1.00
O2       0.22194    0.31298    0.89674   1.00
C3       0.25979    0.21459    0.91826   1.00
H1       0.26770    0.18768    0.90385   1.00
C3a      0.24130    0.28351    0.95713   1.00
H1       0.23231    0.30984    0.97202   1.00
C3b      0.25974    0.21522    0.95922   1.00
C4       0.25038    0.24982    0.97900   1.00
O_3      0.18334    0.22553    1.02167   1.00
C5       0.24933    0.34221    0.88720   1.00
H2       0.26374    0.35408    0.91391   1.00
C5       0.22691    0.37493    0.86666   1.00
H2       0.27227    0.33062    0.86726   1.00
H2       0.21207    0.39298    0.88923   1.00
H2       0.20343    0.36104    0.84899   1.00
C5       0.25322    0.40060    0.84069   1.00
H2       0.27821    0.41171    0.85811   1.00
H2       0.23660    0.42592    0.82891   1.00
H2       0.26440    0.38396    0.81494   1.00
C5       0.12368    0.24038    0.99020   1.00
H2       0.10483    0.22562    1.01218   1.00
H2       0.13389    0.21743    0.96955   1.00
C5       0.10071    0.27198    0.96803   1.00
H2       0.07299    0.25957    0.95666   1.00
C5       0.26670    0.63227    0.87591   1.00
H2       0.29198    0.64755    0.86261   1.00
H2       0.27924    0.61099    0.89690   1.00
C5       0.24065    0.66219    0.89749   1.00
H2       0.25271    0.66890    0.92690   1.00
H2       0.21057    0.65040    0.90082   1.00
O_3      0.18248    0.48000    0.77115   1.00
C4       0.25037    0.52100    0.74975   1.00
C3c      0.26141    0.54243    0.78288   1.00
H1       0.27027    0.52725    0.80908   1.00
C3d      0.23947    0.54135    0.71573   1.00
C3       0.26071    0.58354    0.78301   1.00
O2       0.27641    0.60248    0.81476   1.00
C3       0.23802    0.58227    0.71600   1.00
H1       0.22815    0.59657    0.68968   1.00
C2       0.24869    0.60439    0.74940   1.00
C5       0.15448    0.47879    0.74095   1.00
H2       0.14542    0.44838    0.73380   1.00
H2       0.16591    0.49266    0.71380   1.00
C5       0.11883    0.50122    0.75480   1.00
H2       0.12808    0.53129    0.76299   1.00
H2       0.10745    0.48691    0.78170   1.00
C5       0.08732    0.50254    0.72304   1.00
H2       0.07814    0.47260    0.71452   1.00
H2       0.09821    0.51803    0.69665   1.00
H2       0.06116    0.51830    0.73399   1.00
C5       0.25711    0.51105    0.65916   1.00
C5       0.24675    0.61070    0.84224   1.00
H2       0.27741    0.49088    0.67448   1.00
H2       0.27387    0.53712    0.64918   1.00
H2       0.23338    0.58300    0.85293   1.00
H2       0.22277    0.62895    0.82968   1.00
H2       0.23938    0.69055    0.88140   1.00
H2       0.28314    0.44250    0.61758   1.00
H2       0.29676    0.48766    0.59331   1.00
C2       0.24766    0.39605    0.74893   1.00
C3       0.28263    0.41597    0.74010   1.00
O2       0.31298    0.39674    0.72194   1.00
C3       0.21459    0.41826    0.75979   1.00
H1       0.18768    0.40385    0.76770   1.00
C3a      0.28351    0.45713    0.74130   1.00
H1       0.30984    0.47202    0.73231   1.00
C3b      0.21522    0.45922    0.75974   1.00
C4       0.24982    0.47900    0.75038   1.00
O_3      0.22553    0.52167    0.68334   1.00
C5       0.34221    0.38720    0.74933   1.00
H2       0.35408    0.41391    0.76374   1.00
C5       0.37493    0.36666    0.72691   1.00
H2       0.33062    0.36726    0.77227   1.00
H2       0.39298    0.38923    0.71207   1.00
H2       0.36104    0.34899    0.70343   1.00
C5       0.40060    0.34069    0.75322   1.00
H2       0.41171    0.35811    0.77821   1.00
H2       0.42592    0.32891    0.73660   1.00
H2       0.38396    0.31494    0.76440   1.00
C5       0.24038    0.49020    0.62368   1.00
H2       0.22562    0.51218    0.60483   1.00
H2       0.21743    0.46955    0.63389   1.00
C5       0.27198    0.46803    0.60071   1.00
H2       0.25957    0.45666    0.57299   1.00
C5       -0.13227   0.37591    0.73330   1.00
H2       -0.14755   0.36261    0.70802   1.00
H2       -0.11099   0.39690    0.72076   1.00
C5       -0.16219   0.39749    0.75935   1.00
H2       -0.16890   0.42690    0.74729   1.00
H2       -0.15040   0.40082    0.78943   1.00
O_3      0.02000    0.27115    0.81752   1.00
C4       -0.02100   0.24975    0.74963   1.00
C3c      -0.04243   0.28288    0.73859   1.00
H1       -0.02725   0.30908    0.72973   1.00
C3d      -0.04135   0.21573    0.76053   1.00
C3       -0.08354   0.28301    0.73929   1.00
O2       -0.10248   0.31476    0.72359   1.00
C3       -0.08227   0.21600    0.76198   1.00
H1       -0.09657   0.18968    0.77185   1.00
C2       -0.10439   0.24940    0.75131   1.00
C5       0.02121    0.24095    0.84552   1.00
H2       0.05162    0.23380    0.85458   1.00
H2       0.00734    0.21380    0.83409   1.00
C5       -0.00122   0.25480    0.88117   1.00
H2       -0.03129   0.26299    0.87192   1.00
H2       0.01309    0.28170    0.89255   1.00
C5       -0.00254   0.22304    0.91268   1.00
H2       0.02740    0.21452    0.92186   1.00
H2       -0.01803   0.19665    0.90179   1.00
H2       -0.01830   0.23399    0.93884   1.00
C5       -0.01105   0.15916    0.74289   1.00
C5       -0.11070   0.34224    0.75325   1.00
H2       0.00912    0.17448    0.72259   1.00
H2       -0.03712   0.14918    0.72613   1.00
H2       -0.08300   0.35293    0.76662   1.00
H2       -0.12895   0.32968    0.77723   1.00
H2       -0.19055   0.38140    0.76062   1.00
H2       0.05750    0.11758    0.71686   1.00
H2       0.01234    0.09331    0.70324   1.00
C2       0.10395    0.24893    0.75234   1.00
C3       0.08403    0.24010    0.71737   1.00
O2       0.10326    0.22194    0.68702   1.00
C3       0.08174    0.25979    0.78541   1.00
H1       0.09615    0.26770    0.81232   1.00
C3a      0.04287    0.24130    0.71649   1.00
H1       0.02798    0.23231    0.69016   1.00
C3b      0.04078    0.25974    0.78478   1.00
C4       0.02100    0.25038    0.75018   1.00
O_3      -0.02167   0.18334    0.77447   1.00
C5       0.11280    0.24933    0.65779   1.00
H2       0.08609    0.26374    0.64592   1.00
C5       0.13334    0.22691    0.62507   1.00
H2       0.13274    0.27227    0.66938   1.00
H2       0.11077    0.21207    0.60702   1.00
H2       0.15101    0.20343    0.63896   1.00
C5       0.15931    0.25322    0.59940   1.00
H2       0.14189    0.27821    0.58829   1.00
H2       0.17109    0.23660    0.57408   1.00
H2       0.18506    0.26440    0.61604   1.00
C5       0.00980    0.12368    0.75962   1.00
H2       -0.01218   0.10483    0.77438   1.00
H2       0.03045    0.13389    0.78257   1.00
C5       0.03197    0.10071    0.72802   1.00
H2       0.04334    0.07299    0.74043   1.00
C5       0.63227    0.37591    0.76670   1.00
H2       0.64755    0.36261    0.79198   1.00
H2       0.61099    0.39690    0.77924   1.00
C5       0.66219    0.39749    0.74065   1.00
H2       0.66890    0.42690    0.75271   1.00
H2       0.65040    0.40082    0.71057   1.00
O_3      0.48000    0.27115    0.68248   1.00
C4       0.52100    0.24975    0.75037   1.00
C3c      0.54243    0.28288    0.76141   1.00
H1       0.52725    0.30908    0.77027   1.00
C3d      0.54135    0.21573    0.73947   1.00
C3       0.58354    0.28301    0.76071   1.00
O2       0.60248    0.31476    0.77641   1.00
C3       0.58227    0.21600    0.73802   1.00
H1       0.59657    0.18968    0.72815   1.00
C2       0.60439    0.24940    0.74869   1.00
C5       0.47879    0.24095    0.65448   1.00
H2       0.44838    0.23380    0.64542   1.00
H2       0.49266    0.21380    0.66591   1.00
C5       0.50122    0.25480    0.61883   1.00
H2       0.53129    0.26299    0.62808   1.00
H2       0.48691    0.28170    0.60745   1.00
C5       0.50254    0.22304    0.58732   1.00
H2       0.47260    0.21452    0.57814   1.00
H2       0.51803    0.19665    0.59821   1.00
H2       0.51830    0.23399    0.56116   1.00
C5       0.51105    0.15916    0.75711   1.00
C5       0.61070    0.34224    0.74675   1.00
H2       0.49088    0.17448    0.77741   1.00
H2       0.53712    0.14918    0.77387   1.00
H2       0.58300    0.35293    0.73338   1.00
H2       0.62895    0.32968    0.72277   1.00
H2       0.69055    0.38140    0.73938   1.00
H2       0.44250    0.11758    0.78314   1.00
H2       0.48766    0.09331    0.79676   1.00
C2       0.39605    0.24893    0.74766   1.00
C3       0.41597    0.24010    0.78263   1.00
O2       0.39674    0.22194    0.81298   1.00
C3       0.41826    0.25979    0.71459   1.00
H1       0.40385    0.26770    0.68768   1.00
C3a      0.45713    0.24130    0.78351   1.00
H1       0.47202    0.23231    0.80984   1.00
C3b      0.45922    0.25974    0.71522   1.00
C4       0.47900    0.25038    0.74982   1.00
O_3      0.52167    0.18334    0.72553   1.00
C5       0.38720    0.24933    0.84221   1.00
H2       0.41391    0.26374    0.85408   1.00
C5       0.36666    0.22691    0.87493   1.00
H2       0.36726    0.27227    0.83062   1.00
H2       0.38923    0.21207    0.89298   1.00
H2       0.34899    0.20343    0.86104   1.00
C5       0.34069    0.25322    0.90060   1.00
H2       0.35811    0.27821    0.91171   1.00
H2       0.32891    0.23660    0.92592   1.00
H2       0.31494    0.26440    0.88396   1.00
C5       0.49020    0.12368    0.74038   1.00
H2       0.51218    0.10483    0.72562   1.00
H2       0.46955    0.13389    0.71743   1.00
C5       0.46803    0.10071    0.77198   1.00
H2       0.45666    0.07299    0.75957   1.00
C5       0.23330    -0.13227   0.87591   1.00
H2       0.20802    -0.14755   0.86261   1.00
H2       0.22076    -0.11099   0.89690   1.00
C5       0.25935    -0.16219   0.89749   1.00
H2       0.24729    -0.16890   0.92690   1.00
H2       0.28943    -0.15040   0.90082   1.00
O_3      0.31752    0.02000    0.77115   1.00
C4       0.24963    -0.02100   0.74975   1.00
C3c      0.23859    -0.04243   0.78288   1.00
H1       0.22973    -0.02725   0.80908   1.00
C3d      0.26053    -0.04135   0.71573   1.00
C3       0.23929    -0.08354   0.78301   1.00
O2       0.22359    -0.10248   0.81476   1.00
C3       0.26198    -0.08227   0.71600   1.00
H1       0.27185    -0.09657   0.68968   1.00
C2       0.25131    -0.10439   0.74940   1.00
C5       0.34552    0.02121    0.74095   1.00
H2       0.35458    0.05162    0.73380   1.00
H2       0.33409    0.00734    0.71380   1.00
C5       0.38117    -0.00122   0.75480   1.00
H2       0.37192    -0.03129   0.76299   1.00
H2       0.39255    0.01309    0.78170   1.00
C5       0.41268    -0.00254   0.72304   1.00
H2       0.42186    0.02740    0.71452   1.00
H2       0.40179    -0.01803   0.69665   1.00
H2       0.43884    -0.01830   0.73399   1.00
C5       0.24289    -0.01105   0.65916   1.00
C5       0.25325    -0.11070   0.84224   1.00
H2       0.22259    0.00912    0.67448   1.00
H2       0.22613    -0.03712   0.64918   1.00
H2       0.26662    -0.08300   0.85293   1.00
H2       0.27723    -0.12895   0.82968   1.00
H2       0.26062    -0.19055   0.88140   1.00
H2       0.21686    0.05750    0.61758   1.00
H2       0.20324    0.01234    0.59331   1.00
C2       0.25234    0.10395    0.74893   1.00
C3       0.21737    0.08403    0.74010   1.00
O2       0.18702    0.10326    0.72194   1.00
C3       0.28541    0.08174    0.75979   1.00
H1       0.31232    0.09615    0.76770   1.00
C3a      0.21649    0.04287    0.74130   1.00
H1       0.19016    0.02798    0.73231   1.00
C3b      0.28478    0.04078    0.75974   1.00
C4       0.25018    0.02100    0.75038   1.00
O_3      0.27447    -0.02167   0.68334   1.00
C5       0.15779    0.11280    0.74933   1.00
H2       0.14592    0.08609    0.76374   1.00
C5       0.12507    0.13334    0.72691   1.00
H2       0.16938    0.13274    0.77227   1.00
H2       0.10702    0.11077    0.71207   1.00
H2       0.13896    0.15101    0.70343   1.00
C5       0.09940    0.15931    0.75322   1.00
H2       0.08829    0.14189    0.77821   1.00
H2       0.07408    0.17109    0.73660   1.00
H2       0.11604    0.18506    0.76440   1.00
C5       0.25962    0.00980    0.62368   1.00
H2       0.27438    -0.01218   0.60483   1.00
H2       0.28257    0.03045    0.63389   1.00
C5       0.22802    0.03197    0.60071   1.00
H2       0.24043    0.04334    0.57299   1.00
C5       0.37591    0.23330    0.36773   1.00
H2       0.36261    0.20802    0.35245   1.00
H2       0.39690    0.22076    0.38901   1.00
C5       0.39749    0.25935    0.33781   1.00
H2       0.42690    0.24729    0.33110   1.00
H2       0.40082    0.28943    0.34960   1.00
O_3      0.27115    0.31752    0.52000   1.00
C4       0.24975    0.24963    0.47900   1.00
C3c      0.28288    0.23859    0.45757   1.00
H1       0.30908    0.22973    0.47275   1.00
C3d      0.21573    0.26053    0.45865   1.00
C3       0.28301    0.23929    0.41646   1.00
O2       0.31476    0.22359    0.39752   1.00
C3       0.21600    0.26198    0.41773   1.00
H1       0.18968    0.27185    0.40343   1.00
C2       0.24940    0.25131    0.39561   1.00
C5       0.24095    0.34552    0.52121   1.00
H2       0.23380    0.35458    0.55162   1.00
H2       0.21380    0.33409    0.50734   1.00
C5       0.25480    0.38117    0.49878   1.00
H2       0.26299    0.37192    0.46871   1.00
H2       0.28170    0.39255    0.51309   1.00
C5       0.22304    0.41268    0.49746   1.00
H2       0.21452    0.42186    0.52740   1.00
H2       0.19665    0.40179    0.48197   1.00
H2       0.23399    0.43884    0.48170   1.00
C5       0.15916    0.24289    0.48895   1.00
C5       0.34224    0.25325    0.38930   1.00
H2       0.17448    0.22259    0.50912   1.00
H2       0.14918    0.22613    0.46288   1.00
H2       0.35293    0.26662    0.41700   1.00
H2       0.32968    0.27723    0.37105   1.00
H2       0.38140    0.26062    0.30945   1.00
H2       0.11758    0.21686    0.55750   1.00
H2       0.09331    0.20324    0.51234   1.00
C2       0.24893    0.25234    0.60395   1.00
C3       0.24010    0.21737    0.58403   1.00
O2       0.22194    0.18702    0.60326   1.00
C3       0.25979    0.28541    0.58174   1.00
H1       0.26770    0.31232    0.59615   1.00
C3a      0.24130    0.21649    0.54287   1.00
H1       0.23231    0.19016    0.52798   1.00
C3b      0.25974    0.28478    0.54078   1.00
C4       0.25038    0.25018    0.52100   1.00
O_3      0.18334    0.27447    0.47833   1.00
C5       0.24933    0.15779    0.61280   1.00
H2       0.26374    0.14592    0.58609   1.00
C5       0.22691    0.12507    0.63334   1.00
H2       0.27227    0.16938    0.63274   1.00
H2       0.21207    0.10702    0.61077   1.00
H2       0.20343    0.13896    0.65101   1.00
C5       0.25322    0.09940    0.65931   1.00
H2       0.27821    0.08829    0.64189   1.00
H2       0.23660    0.07408    0.67109   1.00
H2       0.26440    0.11604    0.68506   1.00
C5       0.12368    0.25962    0.50980   1.00
H2       0.10483    0.27438    0.48782   1.00
H2       0.13389    0.28257    0.53045   1.00
C5       0.10071    0.22802    0.53197   1.00
H2       0.07299    0.24043    0.54334   1.00
C5       0.37591    0.76670    0.63227   1.00
H2       0.36261    0.79198    0.64755   1.00
H2       0.39690    0.77924    0.61099   1.00
C5       0.39749    0.74065    0.66219   1.00
H2       0.42690    0.75271    0.66890   1.00
H2       0.40082    0.71057    0.65040   1.00
O_3      0.27115    0.68248    0.48000   1.00
C4       0.24975    0.75037    0.52100   1.00
C3c      0.28288    0.76141    0.54243   1.00
H1       0.30908    0.77027    0.52725   1.00
C3d      0.21573    0.73947    0.54135   1.00
C3       0.28301    0.76071    0.58354   1.00
O2       0.31476    0.77641    0.60248   1.00
C3       0.21600    0.73802    0.58227   1.00
H1       0.18968    0.72815    0.59657   1.00
C2       0.24940    0.74869    0.60439   1.00
C5       0.24095    0.65448    0.47879   1.00
H2       0.23380    0.64542    0.44838   1.00
H2       0.21380    0.66591    0.49266   1.00
C5       0.25480    0.61883    0.50122   1.00
H2       0.26299    0.62808    0.53129   1.00
H2       0.28170    0.60745    0.48691   1.00
C5       0.22304    0.58732    0.50254   1.00
H2       0.21452    0.57814    0.47260   1.00
H2       0.19665    0.59821    0.51803   1.00
H2       0.23399    0.56116    0.51830   1.00
C5       0.15916    0.75711    0.51105   1.00
C5       0.34224    0.74675    0.61070   1.00
H2       0.17448    0.77741    0.49088   1.00
H2       0.14918    0.77387    0.53712   1.00
H2       0.35293    0.73338    0.58300   1.00
H2       0.32968    0.72277    0.62895   1.00
H2       0.38140    0.73938    0.69055   1.00
H2       0.11758    0.78314    0.44250   1.00
H2       0.09331    0.79676    0.48766   1.00
C2       0.24893    0.74766    0.39605   1.00
C3       0.24010    0.78263    0.41597   1.00
O2       0.22194    0.81298    0.39674   1.00
C3       0.25979    0.71459    0.41826   1.00
H1       0.26770    0.68768    0.40385   1.00
C3a      0.24130    0.78351    0.45713   1.00
H1       0.23231    0.80984    0.47202   1.00
C3b      0.25974    0.71522    0.45922   1.00
C4       0.25038    0.74982    0.47900   1.00
O_3      0.18334    0.72553    0.52167   1.00
C5       0.24933    0.84221    0.38720   1.00
H2       0.26374    0.85408    0.41391   1.00
C5       0.22691    0.87493    0.36666   1.00
H2       0.27227    0.83062    0.36726   1.00
H2       0.21207    0.89298    0.38923   1.00
H2       0.20343    0.86104    0.34899   1.00
C5       0.25322    0.90060    0.34069   1.00
H2       0.27821    0.91171    0.35811   1.00
H2       0.23660    0.92592    0.32891   1.00
H2       0.26440    0.88396    0.31494   1.00
C5       0.12368    0.74038    0.49020   1.00
H2       0.10483    0.72562    0.51218   1.00
H2       0.13389    0.71743    0.46955   1.00
C5       0.10071    0.77198    0.46803   1.00
H2       0.07299    0.75957    0.45666   1.00
C5       0.26670    1.13227    0.37591   1.00
H2       0.29198    1.14755    0.36261   1.00
H2       0.27924    1.11099    0.39690   1.00
C5       0.24065    1.16219    0.39749   1.00
H2       0.25271    1.16890    0.42690   1.00
H2       0.21057    1.15040    0.40082   1.00
O_3      0.18248    0.98000    0.27115   1.00
C4       0.25037    1.02100    0.24975   1.00
C3c      0.26141    1.04243    0.28288   1.00
H1       0.27027    1.02725    0.30908   1.00
C3d      0.23947    1.04135    0.21573   1.00
C3       0.26071    1.08354    0.28301   1.00
O2       0.27641    1.10248    0.31476   1.00
C3       0.23802    1.08227    0.21600   1.00
H1       0.22815    1.09657    0.18968   1.00
C2       0.24869    1.10439    0.24940   1.00
C5       0.15448    0.97879    0.24095   1.00
H2       0.14542    0.94838    0.23380   1.00
H2       0.16591    0.99266    0.21380   1.00
C5       0.11883    1.00122    0.25480   1.00
H2       0.12808    1.03129    0.26299   1.00
H2       0.10745    0.98691    0.28170   1.00
C5       0.08732    1.00254    0.22304   1.00
H2       0.07814    0.97260    0.21452   1.00
H2       0.09821    1.01803    0.19665   1.00
H2       0.06116    1.01830    0.23399   1.00
C5       0.25711    1.01105    0.15916   1.00
C5       0.24675    1.11070    0.34224   1.00
H2       0.27741    0.99088    0.17448   1.00
H2       0.27387    1.03712    0.14918   1.00
H2       0.23338    1.08300    0.35293   1.00
H2       0.22277    1.12895    0.32968   1.00
H2       0.23938    1.19055    0.38140   1.00
H2       0.28314    0.94250    0.11758   1.00
H2       0.29676    0.98766    0.09331   1.00
C2       0.24766    0.89605    0.24893   1.00
C3       0.28263    0.91597    0.24010   1.00
O2       0.31298    0.89674    0.22194   1.00
C3       0.21459    0.91826    0.25979   1.00
H1       0.18768    0.90385    0.26770   1.00
C3a      0.28351    0.95713    0.24130   1.00
H1       0.30984    0.97202    0.23231   1.00
C3b      0.21522    0.95922    0.25974   1.00
C4       0.24982    0.97900    0.25038   1.00
O_3      0.22553    1.02167    0.18334   1.00
C5       0.34221    0.88720    0.24933   1.00
H2       0.35408    0.91391    0.26374   1.00
C5       0.37493    0.86666    0.22691   1.00
H2       0.33062    0.86726    0.27227   1.00
H2       0.39298    0.88923    0.21207   1.00
H2       0.36104    0.84899    0.20343   1.00
C5       0.40060    0.84069    0.25322   1.00
H2       0.41171    0.85811    0.27821   1.00
H2       0.42592    0.82891    0.23660   1.00
H2       0.38396    0.81494    0.26440   1.00
C5       0.24038    0.99020    0.12368   1.00
H2       0.22562    1.01218    0.10483   1.00
H2       0.21743    0.96955    0.13389   1.00
C5       0.27198    0.96803    0.10071   1.00
H2       0.25957    0.95666    0.07299   1.00
C5       -0.13227   0.87591    0.23330   1.00
H2       -0.14755   0.86261    0.20802   1.00
H2       -0.11099   0.89690    0.22076   1.00
C5       -0.16219   0.89749    0.25935   1.00
H2       -0.16890   0.92690    0.24729   1.00
H2       -0.15040   0.90082    0.28943   1.00
O_3      0.02000    0.77115    0.31752   1.00
C4       -0.02100   0.74975    0.24963   1.00
C3c      -0.04243   0.78288    0.23859   1.00
H1       -0.02725   0.80908    0.22973   1.00
C3d      -0.04135   0.71573    0.26053   1.00
C3       -0.08354   0.78301    0.23929   1.00
O2       -0.10248   0.81476    0.22359   1.00
C3       -0.08227   0.71600    0.26198   1.00
H1       -0.09657   0.68968    0.27185   1.00
C2       -0.10439   0.74940    0.25131   1.00
C5       0.02121    0.74095    0.34552   1.00
H2       0.05162    0.73380    0.35458   1.00
H2       0.00734    0.71380    0.33409   1.00
C5       -0.00122   0.75480    0.38117   1.00
H2       -0.03129   0.76299    0.37192   1.00
H2       0.01309    0.78170    0.39255   1.00
C5       -0.00254   0.72304    0.41268   1.00
H2       0.02740    0.71452    0.42186   1.00
H2       -0.01803   0.69665    0.40179   1.00
H2       -0.01830   0.73399    0.43884   1.00
C5       -0.01105   0.65916    0.24289   1.00
C5       -0.11070   0.84224    0.25325   1.00
H2       0.00912    0.67448    0.22259   1.00
H2       -0.03712   0.64918    0.22613   1.00
H2       -0.08300   0.85293    0.26662   1.00
H2       -0.12895   0.82968    0.27723   1.00
H2       -0.19055   0.88140    0.26062   1.00
H2       0.05750    0.61758    0.21686   1.00
H2       0.01234    0.59331    0.20324   1.00
C2       0.10395    0.74893    0.25234   1.00
C3       0.08403    0.74010    0.21737   1.00
O2       0.10326    0.72194    0.18702   1.00
C3       0.08174    0.75979    0.28541   1.00
H1       0.09615    0.76770    0.31232   1.00
C3a      0.04287    0.74130    0.21649   1.00
H1       0.02798    0.73231    0.19016   1.00
C3b      0.04078    0.75974    0.28478   1.00
C4       0.02100    0.75038    0.25018   1.00
O_3      -0.02167   0.68334    0.27447   1.00
C5       0.11280    0.74933    0.15779   1.00
H2       0.08609    0.76374    0.14592   1.00
C5       0.13334    0.72691    0.12507   1.00
H2       0.13274    0.77227    0.16938   1.00
H2       0.11077    0.71207    0.10702   1.00
H2       0.15101    0.70343    0.13896   1.00
C5       0.15931    0.75322    0.09940   1.00
H2       0.14189    0.77821    0.08829   1.00
H2       0.17109    0.73660    0.07408   1.00
H2       0.18506    0.76440    0.11604   1.00
C5       0.00980    0.62368    0.25962   1.00
H2       -0.01218   0.60483    0.27438   1.00
H2       0.03045    0.63389    0.28257   1.00
C5       0.03197    0.60071    0.22802   1.00
H2       0.04334    0.57299    0.24043   1.00
C5       0.63227    0.87591    0.26670   1.00
H2       0.64755    0.86261    0.29198   1.00
H2       0.61099    0.89690    0.27924   1.00
C5       0.66219    0.89749    0.24065   1.00
H2       0.66890    0.92690    0.25271   1.00
H2       0.65040    0.90082    0.21057   1.00
O_3      0.48000    0.77115    0.18248   1.00
C4       0.52100    0.74975    0.25037   1.00
C3c      0.54243    0.78288    0.26141   1.00
H1       0.52725    0.80908    0.27027   1.00
C3d      0.54135    0.71573    0.23947   1.00
C3       0.58354    0.78301    0.26071   1.00
O2       0.60248    0.81476    0.27641   1.00
C3       0.58227    0.71600    0.23802   1.00
H1       0.59657    0.68968    0.22815   1.00
C2       0.60439    0.74940    0.24869   1.00
C5       0.47879    0.74095    0.15448   1.00
H2       0.44838    0.73380    0.14542   1.00
H2       0.49266    0.71380    0.16591   1.00
C5       0.50122    0.75480    0.11883   1.00
H2       0.53129    0.76299    0.12808   1.00
H2       0.48691    0.78170    0.10745   1.00
C5       0.50254    0.72304    0.08732   1.00
H2       0.47260    0.71452    0.07814   1.00
H2       0.51803    0.69665    0.09821   1.00
H2       0.51830    0.73399    0.06116   1.00
C5       0.51105    0.65916    0.25711   1.00
C5       0.61070    0.84224    0.24675   1.00
H2       0.49088    0.67448    0.27741   1.00
H2       0.53712    0.64918    0.27387   1.00
H2       0.58300    0.85293    0.23338   1.00
H2       0.62895    0.82968    0.22277   1.00
H2       0.69055    0.88140    0.23938   1.00
H2       0.44250    0.61758    0.28314   1.00
H2       0.48766    0.59331    0.29676   1.00
C2       0.39605    0.74893    0.24766   1.00
C3       0.41597    0.74010    0.28263   1.00
O2       0.39674    0.72194    0.31298   1.00
C3       0.41826    0.75979    0.21459   1.00
H1       0.40385    0.76770    0.18768   1.00
C3a      0.45713    0.74130    0.28351   1.00
H1       0.47202    0.73231    0.30984   1.00
C3b      0.45922    0.75974    0.21522   1.00
C4       0.47900    0.75038    0.24982   1.00
O_3      0.52167    0.68334    0.22553   1.00
C5       0.38720    0.74933    0.34221   1.00
H2       0.41391    0.76374    0.35408   1.00
C5       0.36666    0.72691    0.37493   1.00
H2       0.36726    0.77227    0.33062   1.00
H2       0.38923    0.71207    0.39298   1.00
H2       0.34899    0.70343    0.36104   1.00
C5       0.34069    0.75322    0.40060   1.00
H2       0.35811    0.77821    0.41171   1.00
H2       0.32891    0.73660    0.42592   1.00
H2       0.31494    0.76440    0.38396   1.00
C5       0.49020    0.62368    0.24038   1.00
H2       0.51218    0.60483    0.22562   1.00
H2       0.46955    0.63389    0.21743   1.00
C5       0.46803    0.60071    0.27198   1.00
H2       0.45666    0.57299    0.25957   1.00
C5       0.23330    0.36773    0.37591   1.00
H2       0.20802    0.35245    0.36261   1.00
H2       0.22076    0.38901    0.39690   1.00
C5       0.25935    0.33781    0.39749   1.00
H2       0.24729    0.33110    0.42690   1.00
H2       0.28943    0.34960    0.40082   1.00
O_3      0.31752    0.52000    0.27115   1.00
C4       0.24963    0.47900    0.24975   1.00
C3c      0.23859    0.45757    0.28288   1.00
H1       0.22973    0.47275    0.30908   1.00
C3d      0.26053    0.45865    0.21573   1.00
C3       0.23929    0.41646    0.28301   1.00
O2       0.22359    0.39752    0.31476   1.00
C3       0.26198    0.41773    0.21600   1.00
H1       0.27185    0.40343    0.18968   1.00
C2       0.25131    0.39561    0.24940   1.00
C5       0.34552    0.52121    0.24095   1.00
H2       0.35458    0.55162    0.23380   1.00
H2       0.33409    0.50734    0.21380   1.00
C5       0.38117    0.49878    0.25480   1.00
H2       0.37192    0.46871    0.26299   1.00
H2       0.39255    0.51309    0.28170   1.00
C5       0.41268    0.49746    0.22304   1.00
H2       0.42186    0.52740    0.21452   1.00
H2       0.40179    0.48197    0.19665   1.00
H2       0.43884    0.48170    0.23399   1.00
C5       0.24289    0.48895    0.15916   1.00
C5       0.25325    0.38930    0.34224   1.00
H2       0.22259    0.50912    0.17448   1.00
H2       0.22613    0.46288    0.14918   1.00
H2       0.26662    0.41700    0.35293   1.00
H2       0.27723    0.37105    0.32968   1.00
H2       0.26062    0.30945    0.38140   1.00
H2       0.21686    0.55750    0.11758   1.00
H2       0.20324    0.51234    0.09331   1.00
C2       0.25234    0.60395    0.24893   1.00
C3       0.21737    0.58403    0.24010   1.00
O2       0.18702    0.60326    0.22194   1.00
C3       0.28541    0.58174    0.25979   1.00
H1       0.31232    0.59615    0.26770   1.00
C3a      0.21649    0.54287    0.24130   1.00
H1       0.19016    0.52798    0.23231   1.00
C3b      0.28478    0.54078    0.25974   1.00
C4       0.25018    0.52100    0.25038   1.00
O_3      0.27447    0.47833    0.18334   1.00
C5       0.15779    0.61280    0.24933   1.00
H2       0.14592    0.58609    0.26374   1.00
C5       0.12507    0.63334    0.22691   1.00
H2       0.16938    0.63274    0.27227   1.00
H2       0.10702    0.61077    0.21207   1.00
H2       0.13896    0.65101    0.20343   1.00
C5       0.09940    0.65931    0.25322   1.00
H2       0.08829    0.64189    0.27821   1.00
H2       0.07408    0.67109    0.23660   1.00
H2       0.11604    0.68506    0.26440   1.00
C5       0.25962    0.50980    0.12368   1.00
H2       0.27438    0.48782    0.10483   1.00
H2       0.28257    0.53045    0.13389   1.00
C5       0.22802    0.53197    0.10071   1.00
H2       0.24043    0.54334    0.07299   1.00
C5       0.37591    0.73330    -0.13227   1.00
H2       0.36261    0.70802    -0.14755   1.00
H2       0.39690    0.72076    -0.11099   1.00
C5       0.39749    0.75935    -0.16219   1.00
H2       0.42690    0.74729    -0.16890   1.00
H2       0.40082    0.78943    -0.15040   1.00
O_3      0.27115    0.81752    0.02000   1.00
C4       0.24975    0.74963    -0.02100   1.00
C3c      0.28288    0.73859    -0.04243   1.00
H1       0.30908    0.72973    -0.02725   1.00
C3d      0.21573    0.76053    -0.04135   1.00
C3       0.28301    0.73929    -0.08354   1.00
O2       0.31476    0.72359    -0.10248   1.00
C3       0.21600    0.76198    -0.08227   1.00
H1       0.18968    0.77185    -0.09657   1.00
C2       0.24940    0.75131    -0.10439   1.00
C5       0.24095    0.84552    0.02121   1.00
H2       0.23380    0.85458    0.05162   1.00
H2       0.21380    0.83409    0.00734   1.00
C5       0.25480    0.88117    -0.00122   1.00
H2       0.26299    0.87192    -0.03129   1.00
H2       0.28170    0.89255    0.01309   1.00
C5       0.22304    0.91268    -0.00254   1.00
H2       0.21452    0.92186    0.02740   1.00
H2       0.19665    0.90179    -0.01803   1.00
H2       0.23399    0.93884    -0.01830   1.00
C5       0.15916    0.74289    -0.01105   1.00
C5       0.34224    0.75325    -0.11070   1.00
H2       0.17448    0.72259    0.00912   1.00
H2       0.14918    0.72613    -0.03712   1.00
H2       0.35293    0.76662    -0.08300   1.00
H2       0.32968    0.77723    -0.12895   1.00
H2       0.38140    0.76062    -0.19055   1.00
H2       0.11758    0.71686    0.05750   1.00
H2       0.09331    0.70324    0.01234   1.00
C2       0.24893    0.75234    0.10395   1.00
C3       0.24010    0.71737    0.08403   1.00
O2       0.22194    0.68702    0.10326   1.00
C3       0.25979    0.78541    0.08174   1.00
H1       0.26770    0.81232    0.09615   1.00
C3a      0.24130    0.71649    0.04287   1.00
H1       0.23231    0.69016    0.02798   1.00
C3b      0.25974    0.78478    0.04078   1.00
C4       0.25038    0.75018    0.02100   1.00
O_3      0.18334    0.77447    -0.02167   1.00
C5       0.24933    0.65779    0.11280   1.00
H2       0.26374    0.64592    0.08609   1.00
C5       0.22691    0.62507    0.13334   1.00
H2       0.27227    0.66938    0.13274   1.00
H2       0.21207    0.60702    0.11077   1.00
H2       0.20343    0.63896    0.15101   1.00
C5       0.25322    0.59940    0.15931   1.00
H2       0.27821    0.58829    0.14189   1.00
H2       0.23660    0.57408    0.17109   1.00
H2       0.26440    0.61604    0.18506   1.00
C5       0.12368    0.75962    0.00980   1.00
H2       0.10483    0.77438    -0.01218   1.00
H2       0.13389    0.78257    0.03045   1.00
C5       0.10071    0.72802    0.03197   1.00
H2       0.07299    0.74043    0.04334   1.00
C5       0.87591    0.26670    0.63227   1.00
H2       0.86261    0.29198    0.64755   1.00
H2       0.89690    0.27924    0.61099   1.00
C5       0.89749    0.24065    0.66219   1.00
H2       0.92690    0.25271    0.66890   1.00
H2       0.90082    0.21057    0.65040   1.00
O_3      0.77115    0.18248    0.48000   1.00
C4       0.74975    0.25037    0.52100   1.00
C3c      0.78288    0.26141    0.54243   1.00
H1       0.80908    0.27027    0.52725   1.00
C3d      0.71573    0.23947    0.54135   1.00
C3       0.78301    0.26071    0.58354   1.00
O2       0.81476    0.27641    0.60248   1.00
C3       0.71600    0.23802    0.58227   1.00
H1       0.68968    0.22815    0.59657   1.00
C2       0.74940    0.24869    0.60439   1.00
C5       0.74095    0.15448    0.47879   1.00
H2       0.73380    0.14542    0.44838   1.00
H2       0.71380    0.16591    0.49266   1.00
C5       0.75480    0.11883    0.50122   1.00
H2       0.76299    0.12808    0.53129   1.00
H2       0.78170    0.10745    0.48691   1.00
C5       0.72304    0.08732    0.50254   1.00
H2       0.71452    0.07814    0.47260   1.00
H2       0.69665    0.09821    0.51803   1.00
H2       0.73399    0.06116    0.51830   1.00
C5       0.65916    0.25711    0.51105   1.00
C5       0.84224    0.24675    0.61070   1.00
H2       0.67448    0.27741    0.49088   1.00
H2       0.64918    0.27387    0.53712   1.00
H2       0.85293    0.23338    0.58300   1.00
H2       0.82968    0.22277    0.62895   1.00
H2       0.88140    0.23938    0.69055   1.00
H2       0.61758    0.28314    0.44250   1.00
H2       0.59331    0.29676    0.48766   1.00
C2       0.74893    0.24766    0.39605   1.00
C3       0.74010    0.28263    0.41597   1.00
O2       0.72194    0.31298    0.39674   1.00
C3       0.75979    0.21459    0.41826   1.00
H1       0.76770    0.18768    0.40385   1.00
C3a      0.74130    0.28351    0.45713   1.00
H1       0.73231    0.30984    0.47202   1.00
C3b      0.75974    0.21522    0.45922   1.00
C4       0.75038    0.24982    0.47900   1.00
O_3      0.68334    0.22553    0.52167   1.00
C5       0.74933    0.34221    0.38720   1.00
H2       0.76374    0.35408    0.41391   1.00
C5       0.72691    0.37493    0.36666   1.00
H2       0.77227    0.33062    0.36726   1.00
H2       0.71207    0.39298    0.38923   1.00
H2       0.70343    0.36104    0.34899   1.00
C5       0.75322    0.40060    0.34069   1.00
H2       0.77821    0.41171    0.35811   1.00
H2       0.73660    0.42592    0.32891   1.00
H2       0.76440    0.38396    0.31494   1.00
C5       0.62368    0.24038    0.49020   1.00
H2       0.60483    0.22562    0.51218   1.00
H2       0.63389    0.21743    0.46955   1.00
C5       0.60071    0.27198    0.46803   1.00
H2       0.57299    0.25957    0.45666   1.00
C5       0.76670    0.63227    0.37591   1.00
H2       0.79198    0.64755    0.36261   1.00
H2       0.77924    0.61099    0.39690   1.00
C5       0.74065    0.66219    0.39749   1.00
H2       0.75271    0.66890    0.42690   1.00
H2       0.71057    0.65040    0.40082   1.00
O_3      0.68248    0.48000    0.27115   1.00
C4       0.75037    0.52100    0.24975   1.00
C3c      0.76141    0.54243    0.28288   1.00
H1       0.77027    0.52725    0.30908   1.00
C3d      0.73947    0.54135    0.21573   1.00
C3       0.76071    0.58354    0.28301   1.00
O2       0.77641    0.60248    0.31476   1.00
C3       0.73802    0.58227    0.21600   1.00
H1       0.72815    0.59657    0.18968   1.00
C2       0.74869    0.60439    0.24940   1.00
C5       0.65448    0.47879    0.24095   1.00
H2       0.64542    0.44838    0.23380   1.00
H2       0.66591    0.49266    0.21380   1.00
C5       0.61883    0.50122    0.25480   1.00
H2       0.62808    0.53129    0.26299   1.00
H2       0.60745    0.48691    0.28170   1.00
C5       0.58732    0.50254    0.22304   1.00
H2       0.57814    0.47260    0.21452   1.00
H2       0.59821    0.51803    0.19665   1.00
H2       0.56116    0.51830    0.23399   1.00
C5       0.75711    0.51105    0.15916   1.00
C5       0.74675    0.61070    0.34224   1.00
H2       0.77741    0.49088    0.17448   1.00
H2       0.77387    0.53712    0.14918   1.00
H2       0.73338    0.58300    0.35293   1.00
H2       0.72277    0.62895    0.32968   1.00
H2       0.73938    0.69055    0.38140   1.00
H2       0.78314    0.44250    0.11758   1.00
H2       0.79676    0.48766    0.09331   1.00
C2       0.74766    0.39605    0.24893   1.00
C3       0.78263    0.41597    0.24010   1.00
O2       0.81298    0.39674    0.22194   1.00
C3       0.71459    0.41826    0.25979   1.00
H1       0.68768    0.40385    0.26770   1.00
C3a      0.78351    0.45713    0.24130   1.00
H1       0.80984    0.47202    0.23231   1.00
C3b      0.71522    0.45922    0.25974   1.00
C4       0.74982    0.47900    0.25038   1.00
O_3      0.72553    0.52167    0.18334   1.00
C5       0.84221    0.38720    0.24933   1.00
H2       0.85408    0.41391    0.26374   1.00
C5       0.87493    0.36666    0.22691   1.00
H2       0.83062    0.36726    0.27227   1.00
H2       0.89298    0.38923    0.21207   1.00
H2       0.86104    0.34899    0.20343   1.00
C5       0.90060    0.34069    0.25322   1.00
H2       0.91171    0.35811    0.27821   1.00
H2       0.92592    0.32891    0.23660   1.00
H2       0.88396    0.31494    0.26440   1.00
C5       0.74038    0.49020    0.12368   1.00
H2       0.72562    0.51218    0.10483   1.00
H2       0.71743    0.46955    0.13389   1.00
C5       0.77198    0.46803    0.10071   1.00
H2       0.75957    0.45666    0.07299   1.00
C5       0.36773    0.37591    0.23330   1.00
H2       0.35245    0.36261    0.20802   1.00
H2       0.38901    0.39690    0.22076   1.00
C5       0.33781    0.39749    0.25935   1.00
H2       0.33110    0.42690    0.24729   1.00
H2       0.34960    0.40082    0.28943   1.00
O_3      0.52000    0.27115    0.31752   1.00
C4       0.47900    0.24975    0.24963   1.00
C3c      0.45757    0.28288    0.23859   1.00
H1       0.47275    0.30908    0.22973   1.00
C3d      0.45865    0.21573    0.26053   1.00
C3       0.41646    0.28301    0.23929   1.00
O2       0.39752    0.31476    0.22359   1.00
C3       0.41773    0.21600    0.26198   1.00
H1       0.40343    0.18968    0.27185   1.00
C2       0.39561    0.24940    0.25131   1.00
C5       0.52121    0.24095    0.34552   1.00
H2       0.55162    0.23380    0.35458   1.00
H2       0.50734    0.21380    0.33409   1.00
C5       0.49878    0.25480    0.38117   1.00
H2       0.46871    0.26299    0.37192   1.00
H2       0.51309    0.28170    0.39255   1.00
C5       0.49746    0.22304    0.41268   1.00
H2       0.52740    0.21452    0.42186   1.00
H2       0.48197    0.19665    0.40179   1.00
H2       0.48170    0.23399    0.43884   1.00
C5       0.48895    0.15916    0.24289   1.00
C5       0.38930    0.34224    0.25325   1.00
H2       0.50912    0.17448    0.22259   1.00
H2       0.46288    0.14918    0.22613   1.00
H2       0.41700    0.35293    0.26662   1.00
H2       0.37105    0.32968    0.27723   1.00
H2       0.30945    0.38140    0.26062   1.00
H2       0.55750    0.11758    0.21686   1.00
H2       0.51234    0.09331    0.20324   1.00
C2       0.60395    0.24893    0.25234   1.00
C3       0.58403    0.24010    0.21737   1.00
O2       0.60326    0.22194    0.18702   1.00
C3       0.58174    0.25979    0.28541   1.00
H1       0.59615    0.26770    0.31232   1.00
C3a      0.54287    0.24130    0.21649   1.00
H1       0.52798    0.23231    0.19016   1.00
C3b      0.54078    0.25974    0.28478   1.00
C4       0.52100    0.25038    0.25018   1.00
O_3      0.47833    0.18334    0.27447   1.00
C5       0.61280    0.24933    0.15779   1.00
H2       0.58609    0.26374    0.14592   1.00
C5       0.63334    0.22691    0.12507   1.00
H2       0.63274    0.27227    0.16938   1.00
H2       0.61077    0.21207    0.10702   1.00
H2       0.65101    0.20343    0.13896   1.00
C5       0.65931    0.25322    0.09940   1.00
H2       0.64189    0.27821    0.08829   1.00
H2       0.67109    0.23660    0.07408   1.00
H2       0.68506    0.26440    0.11604   1.00
C5       0.50980    0.12368    0.25962   1.00
H2       0.48782    0.10483    0.27438   1.00
H2       0.53045    0.13389    0.28257   1.00
C5       0.53197    0.10071    0.22802   1.00
H2       0.54334    0.07299    0.24043   1.00
C5       1.13227    0.37591    0.26670   1.00
H2       1.14755    0.36261    0.29198   1.00
H2       1.11099    0.39690    0.27924   1.00
C5       1.16219    0.39749    0.24065   1.00
H2       1.16890    0.42690    0.25271   1.00
H2       1.15040    0.40082    0.21057   1.00
O_3      0.98000    0.27115    0.18248   1.00
C4       1.02100    0.24975    0.25037   1.00
C3c      1.04243    0.28288    0.26141   1.00
H1       1.02725    0.30908    0.27027   1.00
C3d      1.04135    0.21573    0.23947   1.00
C3       1.08354    0.28301    0.26071   1.00
O2       1.10248    0.31476    0.27641   1.00
C3       1.08227    0.21600    0.23802   1.00
H1       1.09657    0.18968    0.22815   1.00
C2       1.10439    0.24940    0.24869   1.00
C5       0.97879    0.24095    0.15448   1.00
H2       0.94838    0.23380    0.14542   1.00
H2       0.99266    0.21380    0.16591   1.00
C5       1.00122    0.25480    0.11883   1.00
H2       1.03129    0.26299    0.12808   1.00
H2       0.98691    0.28170    0.10745   1.00
C5       1.00254    0.22304    0.08732   1.00
H2       0.97260    0.21452    0.07814   1.00
H2       1.01803    0.19665    0.09821   1.00
H2       1.01830    0.23399    0.06116   1.00
C5       1.01105    0.15916    0.25711   1.00
C5       1.11070    0.34224    0.24675   1.00
H2       0.99088    0.17448    0.27741   1.00
H2       1.03712    0.14918    0.27387   1.00
H2       1.08300    0.35293    0.23338   1.00
H2       1.12895    0.32968    0.22277   1.00
H2       1.19055    0.38140    0.23938   1.00
H2       0.94250    0.11758    0.28314   1.00
H2       0.98766    0.09331    0.29676   1.00
C2       0.89605    0.24893    0.24766   1.00
C3       0.91597    0.24010    0.28263   1.00
O2       0.89674    0.22194    0.31298   1.00
C3       0.91826    0.25979    0.21459   1.00
H1       0.90385    0.26770    0.18768   1.00
C3a      0.95713    0.24130    0.28351   1.00
H1       0.97202    0.23231    0.30984   1.00
C3b      0.95922    0.25974    0.21522   1.00
C4       0.97900    0.25038    0.24982   1.00
O_3      1.02167    0.18334    0.22553   1.00
C5       0.88720    0.24933    0.34221   1.00
H2       0.91391    0.26374    0.35408   1.00
C5       0.86666    0.22691    0.37493   1.00
H2       0.86726    0.27227    0.33062   1.00
H2       0.88923    0.21207    0.39298   1.00
H2       0.84899    0.20343    0.36104   1.00
C5       0.84069    0.25322    0.40060   1.00
H2       0.85811    0.27821    0.41171   1.00
H2       0.82891    0.23660    0.42592   1.00
H2       0.81494    0.26440    0.38396   1.00
C5       0.99020    0.12368    0.24038   1.00
H2       1.01218    0.10483    0.22562   1.00
H2       0.96955    0.13389    0.21743   1.00
C5       0.96803    0.10071    0.27198   1.00
H2       0.95666    0.07299    0.25957   1.00
C5       0.73330    -0.13227   0.37591   1.00
H2       0.70802    -0.14755   0.36261   1.00
H2       0.72076    -0.11099   0.39690   1.00
C5       0.75935    -0.16219   0.39749   1.00
H2       0.74729    -0.16890   0.42690   1.00
H2       0.78943    -0.15040   0.40082   1.00
O_3      0.81752    0.02000    0.27115   1.00
C4       0.74963    -0.02100   0.24975   1.00
C3c      0.73859    -0.04243   0.28288   1.00
H1       0.72973    -0.02725   0.30908   1.00
C3d      0.76053    -0.04135   0.21573   1.00
C3       0.73929    -0.08354   0.28301   1.00
O2       0.72359    -0.10248   0.31476   1.00
C3       0.76198    -0.08227   0.21600   1.00
H1       0.77185    -0.09657   0.18968   1.00
C2       0.75131    -0.10439   0.24940   1.00
C5       0.84552    0.02121    0.24095   1.00
H2       0.85458    0.05162    0.23380   1.00
H2       0.83409    0.00734    0.21380   1.00
C5       0.88117    -0.00122   0.25480   1.00
H2       0.87192    -0.03129   0.26299   1.00
H2       0.89255    0.01309    0.28170   1.00
C5       0.91268    -0.00254   0.22304   1.00
H2       0.92186    0.02740    0.21452   1.00
H2       0.90179    -0.01803   0.19665   1.00
H2       0.93884    -0.01830   0.23399   1.00
C5       0.74289    -0.01105   0.15916   1.00
C5       0.75325    -0.11070   0.34224   1.00
H2       0.72259    0.00912    0.17448   1.00
H2       0.72613    -0.03712   0.14918   1.00
H2       0.76662    -0.08300   0.35293   1.00
H2       0.77723    -0.12895   0.32968   1.00
H2       0.76062    -0.19055   0.38140   1.00
H2       0.71686    0.05750    0.11758   1.00
H2       0.70324    0.01234    0.09331   1.00
C2       0.75234    0.10395    0.24893   1.00
C3       0.71737    0.08403    0.24010   1.00
O2       0.68702    0.10326    0.22194   1.00
C3       0.78541    0.08174    0.25979   1.00
H1       0.81232    0.09615    0.26770   1.00
C3a      0.71649    0.04287    0.24130   1.00
H1       0.69016    0.02798    0.23231   1.00
C3b      0.78478    0.04078    0.25974   1.00
C4       0.75018    0.02100    0.25038   1.00
O_3      0.77447    -0.02167   0.18334   1.00
C5       0.65779    0.11280    0.24933   1.00
H2       0.64592    0.08609    0.26374   1.00
C5       0.62507    0.13334    0.22691   1.00
H2       0.66938    0.13274    0.27227   1.00
H2       0.60702    0.11077    0.21207   1.00
H2       0.63896    0.15101    0.20343   1.00
C5       0.59940    0.15931    0.25322   1.00
H2       0.58829    0.14189    0.27821   1.00
H2       0.57408    0.17109    0.23660   1.00
H2       0.61604    0.18506    0.26440   1.00
C5       0.75962    0.00980    0.12368   1.00
H2       0.77438    -0.01218   0.10483   1.00
H2       0.78257    0.03045    0.13389   1.00
C5       0.72802    0.03197    0.10071   1.00
H2       0.74043    0.04334    0.07299   1.00
C5       0.87591    0.23330    -0.13227   1.00
H2       0.86261    0.20802    -0.14755   1.00
H2       0.89690    0.22076    -0.11099   1.00
C5       0.89749    0.25935    -0.16219   1.00
H2       0.92690    0.24729    -0.16890   1.00
H2       0.90082    0.28943    -0.15040   1.00
O_3      0.77115    0.31752    0.02000   1.00
C4       0.74975    0.24963    -0.02100   1.00
C3c      0.78288    0.23859    -0.04243   1.00
H1       0.80908    0.22973    -0.02725   1.00
C3d      0.71573    0.26053    -0.04135   1.00
C3       0.78301    0.23929    -0.08354   1.00
O2       0.81476    0.22359    -0.10248   1.00
C3       0.71600    0.26198    -0.08227   1.00
H1       0.68968    0.27185    -0.09657   1.00
C2       0.74940    0.25131    -0.10439   1.00
C5       0.74095    0.34552    0.02121   1.00
H2       0.73380    0.35458    0.05162   1.00
H2       0.71380    0.33409    0.00734   1.00
C5       0.75480    0.38117    -0.00122   1.00
H2       0.76299    0.37192    -0.03129   1.00
H2       0.78170    0.39255    0.01309   1.00
C5       0.72304    0.41268    -0.00254   1.00
H2       0.71452    0.42186    0.02740   1.00
H2       0.69665    0.40179    -0.01803   1.00
H2       0.73399    0.43884    -0.01830   1.00
C5       0.65916    0.24289    -0.01105   1.00
C5       0.84224    0.25325    -0.11070   1.00
H2       0.67448    0.22259    0.00912   1.00
H2       0.64918    0.22613    -0.03712   1.00
H2       0.85293    0.26662    -0.08300   1.00
H2       0.82968    0.27723    -0.12895   1.00
H2       0.88140    0.26062    -0.19055   1.00
H2       0.61758    0.21686    0.05750   1.00
H2       0.59331    0.20324    0.01234   1.00
C2       0.74893    0.25234    0.10395   1.00
C3       0.74010    0.21737    0.08403   1.00
O2       0.72194    0.18702    0.10326   1.00
C3       0.75979    0.28541    0.08174   1.00
H1       0.76770    0.31232    0.09615   1.00
C3a      0.74130    0.21649    0.04287   1.00
H1       0.73231    0.19016    0.02798   1.00
C3b      0.75974    0.28478    0.04078   1.00
C4       0.75038    0.25018    0.02100   1.00
O_3      0.68334    0.27447    -0.02167   1.00
C5       0.74933    0.15779    0.11280   1.00
H2       0.76374    0.14592    0.08609   1.00
C5       0.72691    0.12507    0.13334   1.00
H2       0.77227    0.16938    0.13274   1.00
H2       0.71207    0.10702    0.11077   1.00
H2       0.70343    0.13896    0.15101   1.00
C5       0.75322    0.09940    0.15931   1.00
H2       0.77821    0.08829    0.14189   1.00
H2       0.73660    0.07408    0.17109   1.00
H2       0.76440    0.11604    0.18506   1.00
C5       0.62368    0.25962    0.00980   1.00
H2       0.60483    0.27438    -0.01218   1.00
H2       0.63389    0.28257    0.03045   1.00
C5       0.60071    0.22802    0.03197   1.00
H2       0.57299    0.24043    0.04334   1.00
C5       1.04091    0.93170    1.29727   1.00
H2       1.02761    0.95698    1.31255   1.00
H2       1.06190    0.94424    1.27599   1.00
C5       1.06249    0.90565    1.32719   1.00
H2       1.09190    0.91771    1.33390   1.00
H2       1.06582    0.87557    1.31540   1.00
O_3      0.93615    0.84748    1.14500   1.00
C4       0.91475    0.91537    1.18600   1.00
C3c      0.94788    0.92641    1.20743   1.00
H1       0.97408    0.93527    1.19225   1.00
C3d      0.88073    0.90447    1.20635   1.00
C3       0.94801    0.92571    1.24854   1.00
O2       0.97976    0.94141    1.26748   1.00
C3       0.88100    0.90302    1.24727   1.00
H1       0.85468    0.89315    1.26157   1.00
C2       0.91440    0.91369    1.26939   1.00
C5       0.90595    0.81948    1.14379   1.00
H2       0.89880    0.81042    1.11338   1.00
H2       0.87880    0.83091    1.15766   1.00
C5       0.91980    0.78383    1.16622   1.00
H2       0.92799    0.79308    1.19629   1.00
H2       0.94670    0.77245    1.15191   1.00
C5       0.88804    0.75232    1.16754   1.00
H2       0.87952    0.74314    1.13760   1.00
H2       0.86165    0.76321    1.18303   1.00
H2       0.89899    0.72616    1.18330   1.00
C5       0.82416    0.92211    1.17605   1.00
C5       1.00724    0.91175    1.27570   1.00
H2       0.83948    0.94241    1.15588   1.00
H2       0.81418    0.93887    1.20212   1.00
H2       1.01793    0.89838    1.24800   1.00
H2       0.99468    0.88777    1.29395   1.00
H2       1.04640    0.90438    1.35555   1.00
H2       0.78258    0.94814    1.10750   1.00
H2       0.75831    0.96176    1.15266   1.00
C2       0.91393    0.91266    1.06105   1.00
C3       0.90510    0.94763    1.08097   1.00
O2       0.88694    0.97798    1.06174   1.00
C3       0.92479    0.87959    1.08326   1.00
H1       0.93270    0.85268    1.06885   1.00
C3a      0.90630    0.94851    1.12213   1.00
H1       0.89731    0.97484    1.13702   1.00
C3b      0.92474    0.88022    1.12422   1.00
C4       0.91538    0.91482    1.14400   1.00
O_3      0.84834    0.89053    1.18667   1.00
C5       0.91433    1.00721    1.05220   1.00
H2       0.92874    1.01908    1.07891   1.00
C5       0.89191    1.03993    1.03166   1.00
H2       0.93727    0.99562    1.03226   1.00
H2       0.87707    1.05798    1.05423   1.00
H2       0.86843    1.02604    1.01399   1.00
C5       0.91822    1.06560    1.00569   1.00
H2       0.94321    1.07671    1.02311   1.00
H2       0.90160    1.09092    0.99391   1.00
H2       0.92940    1.04896    0.97994   1.00
C5       0.78868    0.90538    1.15520   1.00
H2       0.76983    0.89062    1.17718   1.00
H2       0.79889    0.88243    1.13455   1.00
C5       0.76571    0.93698    1.13303   1.00
H2       0.73799    0.92457    1.12166   1.00
C5       0.93170    1.29727    1.04091   1.00
H2       0.95698    1.31255    1.02761   1.00
H2       0.94424    1.27599    1.06190   1.00
C5       0.90565    1.32719    1.06249   1.00
H2       0.91771    1.33390    1.09190   1.00
H2       0.87557    1.31540    1.06582   1.00
O_3      0.84748    1.14500    0.93615   1.00
C4       0.91537    1.18600    0.91475   1.00
C3c      0.92641    1.20743    0.94788   1.00
H1       0.93527    1.19225    0.97408   1.00
C3d      0.90447    1.20635    0.88073   1.00
C3       0.92571    1.24854    0.94801   1.00
O2       0.94141    1.26748    0.97976   1.00
C3       0.90302    1.24727    0.88100   1.00
H1       0.89315    1.26157    0.85468   1.00
C2       0.91369    1.26939    0.91440   1.00
C5       0.81948    1.14379    0.90595   1.00
H2       0.81042    1.11338    0.89880   1.00
H2       0.83091    1.15766    0.87880   1.00
C5       0.78383    1.16622    0.91980   1.00
H2       0.79308    1.19629    0.92799   1.00
H2       0.77245    1.15191    0.94670   1.00
C5       0.75232    1.16754    0.88804   1.00
H2       0.74314    1.13760    0.87952   1.00
H2       0.76321    1.18303    0.86165   1.00
H2       0.72616    1.18330    0.89899   1.00
C5       0.92211    1.17605    0.82416   1.00
C5       0.91175    1.27570    1.00724   1.00
H2       0.94241    1.15588    0.83948   1.00
H2       0.93887    1.20212    0.81418   1.00
H2       0.89838    1.24800    1.01793   1.00
H2       0.88777    1.29395    0.99468   1.00
H2       0.90438    1.35555    1.04640   1.00
H2       0.94814    1.10750    0.78258   1.00
H2       0.96176    1.15266    0.75831   1.00
C2       0.91266    1.06105    0.91393   1.00
C3       0.94763    1.08097    0.90510   1.00
O2       0.97798    1.06174    0.88694   1.00
C3       0.87959    1.08326    0.92479   1.00
H1       0.85268    1.06885    0.93270   1.00
C3a      0.94851    1.12213    0.90630   1.00
H1       0.97484    1.13702    0.89731   1.00
C3b      0.88022    1.12422    0.92474   1.00
C4       0.91482    1.14400    0.91538   1.00
O_3      0.89053    1.18667    0.84834   1.00
C5       1.00721    1.05220    0.91433   1.00
H2       1.01908    1.07891    0.92874   1.00
C5       1.03993    1.03166    0.89191   1.00
H2       0.99562    1.03226    0.93727   1.00
H2       1.05798    1.05423    0.87707   1.00
H2       1.02604    1.01399    0.86843   1.00
C5       1.06560    1.00569    0.91822   1.00
H2       1.07671    1.02311    0.94321   1.00
H2       1.09092    0.99391    0.90160   1.00
H2       1.04896    0.97994    0.92940   1.00
C5       0.90538    1.15520    0.78868   1.00
H2       0.89062    1.17718    0.76983   1.00
H2       0.88243    1.13455    0.79889   1.00
C5       0.93698    1.13303    0.76571   1.00
H2       0.92457    1.12166    0.73799   1.00
C5       0.53273    1.04091    0.89830   1.00
H2       0.51745    1.02761    0.87302   1.00
H2       0.55401    1.06190    0.88576   1.00
C5       0.50281    1.06249    0.92435   1.00
H2       0.49610    1.09190    0.91229   1.00
H2       0.51460    1.06582    0.95443   1.00
O_3      0.68500    0.93615    0.98252   1.00
C4       0.64400    0.91475    0.91463   1.00
C3c      0.62257    0.94788    0.90359   1.00
H1       0.63775    0.97408    0.89473   1.00
C3d      0.62365    0.88073    0.92553   1.00
C3       0.58146    0.94801    0.90429   1.00
O2       0.56252    0.97976    0.88859   1.00
C3       0.58273    0.88100    0.92698   1.00
H1       0.56843    0.85468    0.93685   1.00
C2       0.56061    0.91440    0.91631   1.00
C5       0.68621    0.90595    1.01052   1.00
H2       0.71662    0.89880    1.01958   1.00
H2       0.67234    0.87880    0.99909   1.00
C5       0.66378    0.91980    1.04617   1.00
H2       0.63371    0.92799    1.03692   1.00
H2       0.67809    0.94670    1.05755   1.00
C5       0.66246    0.88804    1.07768   1.00
H2       0.69240    0.87952    1.08686   1.00
H2       0.64697    0.86165    1.06679   1.00
H2       0.64670    0.89899    1.10384   1.00
C5       0.65395    0.82416    0.90789   1.00
C5       0.55430    1.00724    0.91825   1.00
H2       0.67412    0.83948    0.88759   1.00
H2       0.62788    0.81418    0.89113   1.00
H2       0.58200    1.01793    0.93162   1.00
H2       0.53605    0.99468    0.94223   1.00
H2       0.47445    1.04640    0.92562   1.00
H2       0.72250    0.78258    0.88186   1.00
H2       0.67734    0.75831    0.86824   1.00
C2       0.76895    0.91393    0.91734   1.00
C3       0.74903    0.90510    0.88237   1.00
O2       0.76826    0.88694    0.85202   1.00
C3       0.74674    0.92479    0.95041   1.00
H1       0.76115    0.93270    0.97732   1.00
C3a      0.70787    0.90630    0.88149   1.00
H1       0.69298    0.89731    0.85516   1.00
C3b      0.70578    0.92474    0.94978   1.00
C4       0.68600    0.91538    0.91518   1.00
O_3      0.64333    0.84834    0.93947   1.00
C5       0.77780    0.91433    0.82279   1.00
H2       0.75109    0.92874    0.81092   1.00
C5       0.79834    0.89191    0.79007   1.00
H2       0.79774    0.93727    0.83438   1.00
H2       0.77577    0.87707    0.77202   1.00
H2       0.81601    0.86843    0.80396   1.00
C5       0.82431    0.91822    0.76440   1.00
H2       0.80689    0.94321    0.75329   1.00
H2       0.83609    0.90160    0.73908   1.00
H2       0.85006    0.92940    0.78104   1.00
C5       0.67480    0.78868    0.92462   1.00
H2       0.65282    0.76983    0.93938   1.00
H2       0.69545    0.79889    0.94757   1.00
C5       0.69697    0.76571    0.89302   1.00
H2       0.70834    0.73799    0.90543   1.00
C5       1.29727    1.04091    0.93170   1.00
H2       1.31255    1.02761    0.95698   1.00
H2       1.27599    1.06190    0.94424   1.00
C5       1.32719    1.06249    0.90565   1.00
H2       1.33390    1.09190    0.91771   1.00
H2       1.31540    1.06582    0.87557   1.00
O_3      1.14500    0.93615    0.84748   1.00
C4       1.18600    0.91475    0.91537   1.00
C3c      1.20743    0.94788    0.92641   1.00
H1       1.19225    0.97408    0.93527   1.00
C3d      1.20635    0.88073    0.90447   1.00
C3       1.24854    0.94801    0.92571   1.00
O2       1.26748    0.97976    0.94141   1.00
C3       1.24727    0.88100    0.90302   1.00
H1       1.26157    0.85468    0.89315   1.00
C2       1.26939    0.91440    0.91369   1.00
C5       1.14379    0.90595    0.81948   1.00
H2       1.11338    0.89880    0.81042   1.00
H2       1.15766    0.87880    0.83091   1.00
C5       1.16622    0.91980    0.78383   1.00
H2       1.19629    0.92799    0.79308   1.00
H2       1.15191    0.94670    0.77245   1.00
C5       1.16754    0.88804    0.75232   1.00
H2       1.13760    0.87952    0.74314   1.00
H2       1.18303    0.86165    0.76321   1.00
H2       1.18330    0.89899    0.72616   1.00
C5       1.17605    0.82416    0.92211   1.00
C5       1.27570    1.00724    0.91175   1.00
H2       1.15588    0.83948    0.94241   1.00
H2       1.20212    0.81418    0.93887   1.00
H2       1.24800    1.01793    0.89838   1.00
H2       1.29395    0.99468    0.88777   1.00
H2       1.35555    1.04640    0.90438   1.00
H2       1.10750    0.78258    0.94814   1.00
H2       1.15266    0.75831    0.96176   1.00
C2       1.06105    0.91393    0.91266   1.00
C3       1.08097    0.90510    0.94763   1.00
O2       1.06174    0.88694    0.97798   1.00
C3       1.08326    0.92479    0.87959   1.00
H1       1.06885    0.93270    0.85268   1.00
C3a      1.12213    0.90630    0.94851   1.00
H1       1.13702    0.89731    0.97484   1.00
C3b      1.12422    0.92474    0.88022   1.00
C4       1.14400    0.91538    0.91482   1.00
O_3      1.18667    0.84834    0.89053   1.00
C5       1.05220    0.91433    1.00721   1.00
H2       1.07891    0.92874    1.01908   1.00
C5       1.03166    0.89191    1.03993   1.00
H2       1.03226    0.93727    0.99562   1.00
H2       1.05423    0.87707    1.05798   1.00
H2       1.01399    0.86843    1.02604   1.00
C5       1.00569    0.91822    1.06560   1.00
H2       1.02311    0.94321    1.07671   1.00
H2       0.99391    0.90160    1.09092   1.00
H2       0.97994    0.92940    1.04896   1.00
C5       1.15520    0.78868    0.90538   1.00
H2       1.17718    0.76983    0.89062   1.00
H2       1.13455    0.79889    0.88243   1.00
C5       1.13303    0.76571    0.93698   1.00
H2       1.12166    0.73799    0.92457   1.00
C5       0.89830    0.53273    1.04091   1.00
H2       0.87302    0.51745    1.02761   1.00
H2       0.88576    0.55401    1.06190   1.00
C5       0.92435    0.50281    1.06249   1.00
H2       0.91229    0.49610    1.09190   1.00
H2       0.95443    0.51460    1.06582   1.00
O_3      0.98252    0.68500    0.93615   1.00
C4       0.91463    0.64400    0.91475   1.00
C3c      0.90359    0.62257    0.94788   1.00
H1       0.89473    0.63775    0.97408   1.00
C3d      0.92553    0.62365    0.88073   1.00
C3       0.90429    0.58146    0.94801   1.00
O2       0.88859    0.56252    0.97976   1.00
C3       0.92698    0.58273    0.88100   1.00
H1       0.93685    0.56843    0.85468   1.00
C2       0.91631    0.56061    0.91440   1.00
C5       1.01052    0.68621    0.90595   1.00
H2       1.01958    0.71662    0.89880   1.00
H2       0.99909    0.67234    0.87880   1.00
C5       1.04617    0.66378    0.91980   1.00
H2       1.03692    0.63371    0.92799   1.00
H2       1.05755    0.67809    0.94670   1.00
C5       1.07768    0.66246    0.88804   1.00
H2       1.08686    0.69240    0.87952   1.00
H2       1.06679    0.64697    0.86165   1.00
H2       1.10384    0.64670    0.89899   1.00
C5       0.90789    0.65395    0.82416   1.00
C5       0.91825    0.55430    1.00724   1.00
H2       0.88759    0.67412    0.83948   1.00
H2       0.89113    0.62788    0.81418   1.00
H2       0.93162    0.58200    1.01793   1.00
H2       0.94223    0.53605    0.99468   1.00
H2       0.92562    0.47445    1.04640   1.00
H2       0.88186    0.72250    0.78258   1.00
H2       0.86824    0.67734    0.75831   1.00
C2       0.91734    0.76895    0.91393   1.00
C3       0.88237    0.74903    0.90510   1.00
O2       0.85202    0.76826    0.88694   1.00
C3       0.95041    0.74674    0.92479   1.00
H1       0.97732    0.76115    0.93270   1.00
C3a      0.88149    0.70787    0.90630   1.00
H1       0.85516    0.69298    0.89731   1.00
C3b      0.94978    0.70578    0.92474   1.00
C4       0.91518    0.68600    0.91538   1.00
O_3      0.93947    0.64333    0.84834   1.00
C5       0.82279    0.77780    0.91433   1.00
H2       0.81092    0.75109    0.92874   1.00
C5       0.79007    0.79834    0.89191   1.00
H2       0.83438    0.79774    0.93727   1.00
H2       0.77202    0.77577    0.87707   1.00
H2       0.80396    0.81601    0.86843   1.00
C5       0.76440    0.82431    0.91822   1.00
H2       0.75329    0.80689    0.94321   1.00
H2       0.73908    0.83609    0.90160   1.00
H2       0.78104    0.85006    0.92940   1.00
C5       0.92462    0.67480    0.78868   1.00
H2       0.93938    0.65282    0.76983   1.00
H2       0.94757    0.69545    0.79889   1.00
C5       0.89302    0.69697    0.76571   1.00
H2       0.90543    0.70834    0.73799   1.00
C5       1.04091    0.89830    0.53273   1.00
H2       1.02761    0.87302    0.51745   1.00
H2       1.06190    0.88576    0.55401   1.00
C5       1.06249    0.92435    0.50281   1.00
H2       1.09190    0.91229    0.49610   1.00
H2       1.06582    0.95443    0.51460   1.00
O_3      0.93615    0.98252    0.68500   1.00
C4       0.91475    0.91463    0.64400   1.00
C3c      0.94788    0.90359    0.62257   1.00
H1       0.97408    0.89473    0.63775   1.00
C3d      0.88073    0.92553    0.62365   1.00
C3       0.94801    0.90429    0.58146   1.00
O2       0.97976    0.88859    0.56252   1.00
C3       0.88100    0.92698    0.58273   1.00
H1       0.85468    0.93685    0.56843   1.00
C2       0.91440    0.91631    0.56061   1.00
C5       0.90595    1.01052    0.68621   1.00
H2       0.89880    1.01958    0.71662   1.00
H2       0.87880    0.99909    0.67234   1.00
C5       0.91980    1.04617    0.66378   1.00
H2       0.92799    1.03692    0.63371   1.00
H2       0.94670    1.05755    0.67809   1.00
C5       0.88804    1.07768    0.66246   1.00
H2       0.87952    1.08686    0.69240   1.00
H2       0.86165    1.06679    0.64697   1.00
H2       0.89899    1.10384    0.64670   1.00
C5       0.82416    0.90789    0.65395   1.00
C5       1.00724    0.91825    0.55430   1.00
H2       0.83948    0.88759    0.67412   1.00
H2       0.81418    0.89113    0.62788   1.00
H2       1.01793    0.93162    0.58200   1.00
H2       0.99468    0.94223    0.53605   1.00
H2       1.04640    0.92562    0.47445   1.00
H2       0.78258    0.88186    0.72250   1.00
H2       0.75831    0.86824    0.67734   1.00
C2       0.91393    0.91734    0.76895   1.00
C3       0.90510    0.88237    0.74903   1.00
O2       0.88694    0.85202    0.76826   1.00
C3       0.92479    0.95041    0.74674   1.00
H1       0.93270    0.97732    0.76115   1.00
C3a      0.90630    0.88149    0.70787   1.00
H1       0.89731    0.85516    0.69298   1.00
C3b      0.92474    0.94978    0.70578   1.00
C4       0.91538    0.91518    0.68600   1.00
O_3      0.84834    0.93947    0.64333   1.00
C5       0.91433    0.82279    0.77780   1.00
H2       0.92874    0.81092    0.75109   1.00
C5       0.89191    0.79007    0.79834   1.00
H2       0.93727    0.83438    0.79774   1.00
H2       0.87707    0.77202    0.77577   1.00
H2       0.86843    0.80396    0.81601   1.00
C5       0.91822    0.76440    0.82431   1.00
H2       0.94321    0.75329    0.80689   1.00
H2       0.90160    0.73908    0.83609   1.00
H2       0.92940    0.78104    0.85006   1.00
C5       0.78868    0.92462    0.67480   1.00
H2       0.76983    0.93938    0.65282   1.00
H2       0.79889    0.94757    0.69545   1.00
C5       0.76571    0.89302    0.69697   1.00
H2       0.73799    0.90543    0.70834   1.00
C5       0.54091    0.43170    1.29727   1.00
H2       0.52761    0.45698    1.31255   1.00
H2       0.56190    0.44424    1.27599   1.00
C5       0.56249    0.40565    1.32719   1.00
H2       0.59190    0.41771    1.33390   1.00
H2       0.56582    0.37557    1.31540   1.00
O_3      0.43615    0.34748    1.14500   1.00
C4       0.41475    0.41537    1.18600   1.00
C3c      0.44788    0.42641    1.20743   1.00
H1       0.47408    0.43527    1.19225   1.00
C3d      0.38073    0.40447    1.20635   1.00
C3       0.44801    0.42571    1.24854   1.00
O2       0.47976    0.44141    1.26748   1.00
C3       0.38100    0.40302    1.24727   1.00
H1       0.35468    0.39315    1.26157   1.00
C2       0.41440    0.41369    1.26939   1.00
C5       0.40595    0.31948    1.14379   1.00
H2       0.39880    0.31042    1.11338   1.00
H2       0.37880    0.33091    1.15766   1.00
C5       0.41980    0.28383    1.16622   1.00
H2       0.42799    0.29308    1.19629   1.00
H2       0.44670    0.27245    1.15191   1.00
C5       0.38804    0.25232    1.16754   1.00
H2       0.37952    0.24314    1.13760   1.00
H2       0.36165    0.26321    1.18303   1.00
H2       0.39899    0.22616    1.18330   1.00
C5       0.32416    0.42211    1.17605   1.00
C5       0.50724    0.41175    1.27570   1.00
H2       0.33948    0.44241    1.15588   1.00
H2       0.31418    0.43887    1.20212   1.00
H2       0.51793    0.39838    1.24800   1.00
H2       0.49468    0.38777    1.29395   1.00
H2       0.54640    0.40438    1.35555   1.00
H2       0.28258    0.44814    1.10750   1.00
H2       0.25831    0.46176    1.15266   1.00
C2       0.41393    0.41266    1.06105   1.00
C3       0.40510    0.44763    1.08097   1.00
O2       0.38694    0.47798    1.06174   1.00
C3       0.42479    0.37959    1.08326   1.00
H1       0.43270    0.35268    1.06885   1.00
C3a      0.40630    0.44851    1.12213   1.00
H1       0.39731    0.47484    1.13702   1.00
C3b      0.42474    0.38022    1.12422   1.00
C4       0.41538    0.41482    1.14400   1.00
O_3      0.34834    0.39053    1.18667   1.00
C5       0.41433    0.50721    1.05220   1.00
H2       0.42874    0.51908    1.07891   1.00
C5       0.39191    0.53993    1.03166   1.00
H2       0.43727    0.49562    1.03226   1.00
H2       0.37707    0.55798    1.05423   1.00
H2       0.36843    0.52604    1.01399   1.00
C5       0.41822    0.56560    1.00569   1.00
H2       0.44321    0.57671    1.02311   1.00
H2       0.40160    0.59092    0.99391   1.00
H2       0.42940    0.54896    0.97994   1.00
C5       0.28868    0.40538    1.15520   1.00
H2       0.26983    0.39062    1.17718   1.00
H2       0.29889    0.38243    1.13455   1.00
C5       0.26571    0.43698    1.13303   1.00
H2       0.23799    0.42457    1.12166   1.00
C5       0.43170    0.79727    1.04091   1.00
H2       0.45698    0.81255    1.02761   1.00
H2       0.44424    0.77599    1.06190   1.00
C5       0.40565    0.82719    1.06249   1.00
H2       0.41771    0.83390    1.09190   1.00
H2       0.37557    0.81540    1.06582   1.00
O_3      0.34748    0.64500    0.93615   1.00
C4       0.41537    0.68600    0.91475   1.00
C3c      0.42641    0.70743    0.94788   1.00
H1       0.43527    0.69225    0.97408   1.00
C3d      0.40447    0.70635    0.88073   1.00
C3       0.42571    0.74854    0.94801   1.00
O2       0.44141    0.76748    0.97976   1.00
C3       0.40302    0.74727    0.88100   1.00
H1       0.39315    0.76157    0.85468   1.00
C2       0.41369    0.76939    0.91440   1.00
C5       0.31948    0.64379    0.90595   1.00
H2       0.31042    0.61338    0.89880   1.00
H2       0.33091    0.65766    0.87880   1.00
C5       0.28383    0.66622    0.91980   1.00
H2       0.29308    0.69629    0.92799   1.00
H2       0.27245    0.65191    0.94670   1.00
C5       0.25232    0.66754    0.88804   1.00
H2       0.24314    0.63760    0.87952   1.00
H2       0.26321    0.68303    0.86165   1.00
H2       0.22616    0.68330    0.89899   1.00
C5       0.42211    0.67605    0.82416   1.00
C5       0.41175    0.77570    1.00724   1.00
H2       0.44241    0.65588    0.83948   1.00
H2       0.43887    0.70212    0.81418   1.00
H2       0.39838    0.74800    1.01793   1.00
H2       0.38777    0.79395    0.99468   1.00
H2       0.40438    0.85555    1.04640   1.00
H2       0.44814    0.60750    0.78258   1.00
H2       0.46176    0.65266    0.75831   1.00
C2       0.41266    0.56105    0.91393   1.00
C3       0.44763    0.58097    0.90510   1.00
O2       0.47798    0.56174    0.88694   1.00
C3       0.37959    0.58326    0.92479   1.00
H1       0.35268    0.56885    0.93270   1.00
C3a      0.44851    0.62213    0.90630   1.00
H1       0.47484    0.63702    0.89731   1.00
C3b      0.38022    0.62422    0.92474   1.00
C4       0.41482    0.64400    0.91538   1.00
O_3      0.39053    0.68667    0.84834   1.00
C5       0.50721    0.55220    0.91433   1.00
H2       0.51908    0.57891    0.92874   1.00
C5       0.53993    0.53166    0.89191   1.00
H2       0.49562    0.53226    0.93727   1.00
H2       0.55798    0.55423    0.87707   1.00
H2       0.52604    0.51399    0.86843   1.00
C5       0.56560    0.50569    0.91822   1.00
H2       0.57671    0.52311    0.94321   1.00
H2       0.59092    0.49391    0.90160   1.00
H2       0.54896    0.47994    0.92940   1.00
C5       0.40538    0.65520    0.78868   1.00
H2       0.39062    0.67718    0.76983   1.00
H2       0.38243    0.63455    0.79889   1.00
C5       0.43698    0.63303    0.76571   1.00
H2       0.42457    0.62166    0.73799   1.00
C5       0.03273    0.54091    0.89830   1.00
H2       0.01745    0.52761    0.87302   1.00
H2       0.05401    0.56190    0.88576   1.00
C5       0.00281    0.56249    0.92435   1.00
H2       -0.00390   0.59190    0.91229   1.00
H2       0.01460    0.56582    0.95443   1.00
O_3      0.18500    0.43615    0.98252   1.00
C4       0.14400    0.41475    0.91463   1.00
C3c      0.12257    0.44788    0.90359   1.00
H1       0.13775    0.47408    0.89473   1.00
C3d      0.12365    0.38073    0.92553   1.00
C3       0.08146    0.44801    0.90429   1.00
O2       0.06252    0.47976    0.88859   1.00
C3       0.08273    0.38100    0.92698   1.00
H1       0.06843    0.35468    0.93685   1.00
C2       0.06061    0.41440    0.91631   1.00
C5       0.18621    0.40595    1.01052   1.00
H2       0.21662    0.39880    1.01958   1.00
H2       0.17234    0.37880    0.99909   1.00
C5       0.16378    0.41980    1.04617   1.00
H2       0.13371    0.42799    1.03692   1.00
H2       0.17809    0.44670    1.05755   1.00
C5       0.16246    0.38804    1.07768   1.00
H2       0.19240    0.37952    1.08686   1.00
H2       0.14697    0.36165    1.06679   1.00
H2       0.14670    0.39899    1.10384   1.00
C5       0.15395    0.32416    0.90789   1.00
C5       0.05430    0.50724    0.91825   1.00
H2       0.17412    0.33948    0.88759   1.00
H2       0.12788    0.31418    0.89113   1.00
H2       0.08200    0.51793    0.93162   1.00
H2       0.03605    0.49468    0.94223   1.00
H2       -0.02555   0.54640    0.92562   1.00
H2       0.22250    0.28258    0.88186   1.00
H2       0.17734    0.25831    0.86824   1.00
C2       0.26895    0.41393    0.91734   1.00
C3       0.24903    0.40510    0.88237   1.00
O2       0.26826    0.38694    0.85202   1.00
C3       0.24674    0.42479    0.95041   1.00
H1       0.26115    0.43270    0.97732   1.00
C3a      0.20787    0.40630    0.88149   1.00
H1       0.19298    0.39731    0.85516   1.00
C3b      0.20578    0.42474    0.94978   1.00
C4       0.18600    0.41538    0.91518   1.00
O_3      0.14333    0.34834    0.93947   1.00
C5       0.27780    0.41433    0.82279   1.00
H2       0.25109    0.42874    0.81092   1.00
C5       0.29834    0.39191    0.79007   1.00
H2       0.29774    0.43727    0.83438   1.00
H2       0.27577    0.37707    0.77202   1.00
H2       0.31601    0.36843    0.80396   1.00
C5       0.32431    0.41822    0.76440   1.00
H2       0.30689    0.44321    0.75329   1.00
H2       0.33609    0.40160    0.73908   1.00
H2       0.35006    0.42940    0.78104   1.00
C5       0.17480    0.28868    0.92462   1.00
H2       0.15282    0.26983    0.93938   1.00
H2       0.19545    0.29889    0.94757   1.00
C5       0.19697    0.26571    0.89302   1.00
H2       0.20834    0.23799    0.90543   1.00
C5       0.79727    0.54091    0.93170   1.00
H2       0.81255    0.52761    0.95698   1.00
H2       0.77599    0.56190    0.94424   1.00
C5       0.82719    0.56249    0.90565   1.00
H2       0.83390    0.59190    0.91771   1.00
H2       0.81540    0.56582    0.87557   1.00
O_3      0.64500    0.43615    0.84748   1.00
C4       0.68600    0.41475    0.91537   1.00
C3c      0.70743    0.44788    0.92641   1.00
H1       0.69225    0.47408    0.93527   1.00
C3d      0.70635    0.38073    0.90447   1.00
C3       0.74854    0.44801    0.92571   1.00
O2       0.76748    0.47976    0.94141   1.00
C3       0.74727    0.38100    0.90302   1.00
H1       0.76157    0.35468    0.89315   1.00
C2       0.76939    0.41440    0.91369   1.00
C5       0.64379    0.40595    0.81948   1.00
H2       0.61338    0.39880    0.81042   1.00
H2       0.65766    0.37880    0.83091   1.00
C5       0.66622    0.41980    0.78383   1.00
H2       0.69629    0.42799    0.79308   1.00
H2       0.65191    0.44670    0.77245   1.00
C5       0.66754    0.38804    0.75232   1.00
H2       0.63760    0.37952    0.74314   1.00
H2       0.68303    0.36165    0.76321   1.00
H2       0.68330    0.39899    0.72616   1.00
C5       0.67605    0.32416    0.92211   1.00
C5       0.77570    0.50724    0.91175   1.00
H2       0.65588    0.33948    0.94241   1.00
H2       0.70212    0.31418    0.93887   1.00
H2       0.74800    0.51793    0.89838   1.00
H2       0.79395    0.49468    0.88777   1.00
H2       0.85555    0.54640    0.90438   1.00
H2       0.60750    0.28258    0.94814   1.00
H2       0.65266    0.25831    0.96176   1.00
C2       0.56105    0.41393    0.91266   1.00
C3       0.58097    0.40510    0.94763   1.00
O2       0.56174    0.38694    0.97798   1.00
C3       0.58326    0.42479    0.87959   1.00
H1       0.56885    0.43270    0.85268   1.00
C3a      0.62213    0.40630    0.94851   1.00
H1       0.63702    0.39731    0.97484   1.00
C3b      0.62422    0.42474    0.88022   1.00
C4       0.64400    0.41538    0.91482   1.00
O_3      0.68667    0.34834    0.89053   1.00
C5       0.55220    0.41433    1.00721   1.00
H2       0.57891    0.42874    1.01908   1.00
C5       0.53166    0.39191    1.03993   1.00
H2       0.53226    0.43727    0.99562   1.00
H2       0.55423    0.37707    1.05798   1.00
H2       0.51399    0.36843    1.02604   1.00
C5       0.50569    0.41822    1.06560   1.00
H2       0.52311    0.44321    1.07671   1.00
H2       0.49391    0.40160    1.09092   1.00
H2       0.47994    0.42940    1.04896   1.00
C5       0.65520    0.28868    0.90538   1.00
H2       0.67718    0.26983    0.89062   1.00
H2       0.63455    0.29889    0.88243   1.00
C5       0.63303    0.26571    0.93698   1.00
H2       0.62166    0.23799    0.92457   1.00
C5       0.39830    0.03273    1.04091   1.00
H2       0.37302    0.01745    1.02761   1.00
H2       0.38576    0.05401    1.06190   1.00
C5       0.42435    0.00281    1.06249   1.00
H2       0.41229    -0.00390   1.09190   1.00
H2       0.45443    0.01460    1.06582   1.00
O_3      0.48252    0.18500    0.93615   1.00
C4       0.41463    0.14400    0.91475   1.00
C3c      0.40359    0.12257    0.94788   1.00
H1       0.39473    0.13775    0.97408   1.00
C3d      0.42553    0.12365    0.88073   1.00
C3       0.40429    0.08146    0.94801   1.00
O2       0.38859    0.06252    0.97976   1.00
C3       0.42698    0.08273    0.88100   1.00
H1       0.43685    0.06843    0.85468   1.00
C2       0.41631    0.06061    0.91440   1.00
C5       0.51052    0.18621    0.90595   1.00
H2       0.51958    0.21662    0.89880   1.00
H2       0.49909    0.17234    0.87880   1.00
C5       0.54617    0.16378    0.91980   1.00
H2       0.53692    0.13371    0.92799   1.00
H2       0.55755    0.17809    0.94670   1.00
C5       0.57768    0.16246    0.88804   1.00
H2       0.58686    0.19240    0.87952   1.00
H2       0.56679    0.14697    0.86165   1.00
H2       0.60384    0.14670    0.89899   1.00
C5       0.40789    0.15395    0.82416   1.00
C5       0.41825    0.05430    1.00724   1.00
H2       0.38759    0.17412    0.83948   1.00
H2       0.39113    0.12788    0.81418   1.00
H2       0.43162    0.08200    1.01793   1.00
H2       0.44223    0.03605    0.99468   1.00
H2       0.42562    -0.02555   1.04640   1.00
H2       0.38186    0.22250    0.78258   1.00
H2       0.36824    0.17734    0.75831   1.00
C2       0.41734    0.26895    0.91393   1.00
C3       0.38237    0.24903    0.90510   1.00
O2       0.35202    0.26826    0.88694   1.00
C3       0.45041    0.24674    0.92479   1.00
H1       0.47732    0.26115    0.93270   1.00
C3a      0.38149    0.20787    0.90630   1.00
H1       0.35516    0.19298    0.89731   1.00
C3b      0.44978    0.20578    0.92474   1.00
C4       0.41518    0.18600    0.91538   1.00
O_3      0.43947    0.14333    0.84834   1.00
C5       0.32279    0.27780    0.91433   1.00
H2       0.31092    0.25109    0.92874   1.00
C5       0.29007    0.29834    0.89191   1.00
H2       0.33438    0.29774    0.93727   1.00
H2       0.27202    0.27577    0.87707   1.00
H2       0.30396    0.31601    0.86843   1.00
C5       0.26440    0.32431    0.91822   1.00
H2       0.25329    0.30689    0.94321   1.00
H2       0.23908    0.33609    0.90160   1.00
H2       0.28104    0.35006    0.92940   1.00
C5       0.42462    0.17480    0.78868   1.00
H2       0.43938    0.15282    0.76983   1.00
H2       0.44757    0.19545    0.79889   1.00
C5       0.39302    0.19697    0.76571   1.00
H2       0.40543    0.20834    0.73799   1.00
C5       0.54091    0.39830    0.53273   1.00
H2       0.52761    0.37302    0.51745   1.00
H2       0.56190    0.38576    0.55401   1.00
C5       0.56249    0.42435    0.50281   1.00
H2       0.59190    0.41229    0.49610   1.00
H2       0.56582    0.45443    0.51460   1.00
O_3      0.43615    0.48252    0.68500   1.00
C4       0.41475    0.41463    0.64400   1.00
C3c      0.44788    0.40359    0.62257   1.00
H1       0.47408    0.39473    0.63775   1.00
C3d      0.38073    0.42553    0.62365   1.00
C3       0.44801    0.40429    0.58146   1.00
O2       0.47976    0.38859    0.56252   1.00
C3       0.38100    0.42698    0.58273   1.00
H1       0.35468    0.43685    0.56843   1.00
C2       0.41440    0.41631    0.56061   1.00
C5       0.40595    0.51052    0.68621   1.00
H2       0.39880    0.51958    0.71662   1.00
H2       0.37880    0.49909    0.67234   1.00
C5       0.41980    0.54617    0.66378   1.00
H2       0.42799    0.53692    0.63371   1.00
H2       0.44670    0.55755    0.67809   1.00
C5       0.38804    0.57768    0.66246   1.00
H2       0.37952    0.58686    0.69240   1.00
H2       0.36165    0.56679    0.64697   1.00
H2       0.39899    0.60384    0.64670   1.00
C5       0.32416    0.40789    0.65395   1.00
C5       0.50724    0.41825    0.55430   1.00
H2       0.33948    0.38759    0.67412   1.00
H2       0.31418    0.39113    0.62788   1.00
H2       0.51793    0.43162    0.58200   1.00
H2       0.49468    0.44223    0.53605   1.00
H2       0.54640    0.42562    0.47445   1.00
H2       0.28258    0.38186    0.72250   1.00
H2       0.25831    0.36824    0.67734   1.00
C2       0.41393    0.41734    0.76895   1.00
C3       0.40510    0.38237    0.74903   1.00
O2       0.38694    0.35202    0.76826   1.00
C3       0.42479    0.45041    0.74674   1.00
H1       0.43270    0.47732    0.76115   1.00
C3a      0.40630    0.38149    0.70787   1.00
H1       0.39731    0.35516    0.69298   1.00
C3b      0.42474    0.44978    0.70578   1.00
C4       0.41538    0.41518    0.68600   1.00
O_3      0.34834    0.43947    0.64333   1.00
C5       0.41433    0.32279    0.77780   1.00
H2       0.42874    0.31092    0.75109   1.00
C5       0.39191    0.29007    0.79834   1.00
H2       0.43727    0.33438    0.79774   1.00
H2       0.37707    0.27202    0.77577   1.00
H2       0.36843    0.30396    0.81601   1.00
C5       0.41822    0.26440    0.82431   1.00
H2       0.44321    0.25329    0.80689   1.00
H2       0.40160    0.23908    0.83609   1.00
H2       0.42940    0.28104    0.85006   1.00
C5       0.28868    0.42462    0.67480   1.00
H2       0.26983    0.43938    0.65282   1.00
H2       0.29889    0.44757    0.69545   1.00
C5       0.26571    0.39302    0.69697   1.00
H2       0.23799    0.40543    0.70834   1.00
C5       0.54091    0.93170    0.79727   1.00
H2       0.52761    0.95698    0.81255   1.00
H2       0.56190    0.94424    0.77599   1.00
C5       0.56249    0.90565    0.82719   1.00
H2       0.59190    0.91771    0.83390   1.00
H2       0.56582    0.87557    0.81540   1.00
O_3      0.43615    0.84748    0.64500   1.00
C4       0.41475    0.91537    0.68600   1.00
C3c      0.44788    0.92641    0.70743   1.00
H1       0.47408    0.93527    0.69225   1.00
C3d      0.38073    0.90447    0.70635   1.00
C3       0.44801    0.92571    0.74854   1.00
O2       0.47976    0.94141    0.76748   1.00
C3       0.38100    0.90302    0.74727   1.00
H1       0.35468    0.89315    0.76157   1.00
C2       0.41440    0.91369    0.76939   1.00
C5       0.40595    0.81948    0.64379   1.00
H2       0.39880    0.81042    0.61338   1.00
H2       0.37880    0.83091    0.65766   1.00
C5       0.41980    0.78383    0.66622   1.00
H2       0.42799    0.79308    0.69629   1.00
H2       0.44670    0.77245    0.65191   1.00
C5       0.38804    0.75232    0.66754   1.00
H2       0.37952    0.74314    0.63760   1.00
H2       0.36165    0.76321    0.68303   1.00
H2       0.39899    0.72616    0.68330   1.00
C5       0.32416    0.92211    0.67605   1.00
C5       0.50724    0.91175    0.77570   1.00
H2       0.33948    0.94241    0.65588   1.00
H2       0.31418    0.93887    0.70212   1.00
H2       0.51793    0.89838    0.74800   1.00
H2       0.49468    0.88777    0.79395   1.00
H2       0.54640    0.90438    0.85555   1.00
H2       0.28258    0.94814    0.60750   1.00
H2       0.25831    0.96176    0.65266   1.00
C2       0.41393    0.91266    0.56105   1.00
C3       0.40510    0.94763    0.58097   1.00
O2       0.38694    0.97798    0.56174   1.00
C3       0.42479    0.87959    0.58326   1.00
H1       0.43270    0.85268    0.56885   1.00
C3a      0.40630    0.94851    0.62213   1.00
H1       0.39731    0.97484    0.63702   1.00
C3b      0.42474    0.88022    0.62422   1.00
C4       0.41538    0.91482    0.64400   1.00
O_3      0.34834    0.89053    0.68667   1.00
C5       0.41433    1.00721    0.55220   1.00
H2       0.42874    1.01908    0.57891   1.00
C5       0.39191    1.03993    0.53166   1.00
H2       0.43727    0.99562    0.53226   1.00
H2       0.37707    1.05798    0.55423   1.00
H2       0.36843    1.02604    0.51399   1.00
C5       0.41822    1.06560    0.50569   1.00
H2       0.44321    1.07671    0.52311   1.00
H2       0.40160    1.09092    0.49391   1.00
H2       0.42940    1.04896    0.47994   1.00
C5       0.28868    0.90538    0.65520   1.00
H2       0.26983    0.89062    0.67718   1.00
H2       0.29889    0.88243    0.63455   1.00
C5       0.26571    0.93698    0.63303   1.00
H2       0.23799    0.92457    0.62166   1.00
C5       0.43170    1.29727    0.54091   1.00
H2       0.45698    1.31255    0.52761   1.00
H2       0.44424    1.27599    0.56190   1.00
C5       0.40565    1.32719    0.56249   1.00
H2       0.41771    1.33390    0.59190   1.00
H2       0.37557    1.31540    0.56582   1.00
O_3      0.34748    1.14500    0.43615   1.00
C4       0.41537    1.18600    0.41475   1.00
C3c      0.42641    1.20743    0.44788   1.00
H1       0.43527    1.19225    0.47408   1.00
C3d      0.40447    1.20635    0.38073   1.00
C3       0.42571    1.24854    0.44801   1.00
O2       0.44141    1.26748    0.47976   1.00
C3       0.40302    1.24727    0.38100   1.00
H1       0.39315    1.26157    0.35468   1.00
C2       0.41369    1.26939    0.41440   1.00
C5       0.31948    1.14379    0.40595   1.00
H2       0.31042    1.11338    0.39880   1.00
H2       0.33091    1.15766    0.37880   1.00
C5       0.28383    1.16622    0.41980   1.00
H2       0.29308    1.19629    0.42799   1.00
H2       0.27245    1.15191    0.44670   1.00
C5       0.25232    1.16754    0.38804   1.00
H2       0.24314    1.13760    0.37952   1.00
H2       0.26321    1.18303    0.36165   1.00
H2       0.22616    1.18330    0.39899   1.00
C5       0.42211    1.17605    0.32416   1.00
C5       0.41175    1.27570    0.50724   1.00
H2       0.44241    1.15588    0.33948   1.00
H2       0.43887    1.20212    0.31418   1.00
H2       0.39838    1.24800    0.51793   1.00
H2       0.38777    1.29395    0.49468   1.00
H2       0.40438    1.35555    0.54640   1.00
H2       0.44814    1.10750    0.28258   1.00
H2       0.46176    1.15266    0.25831   1.00
C2       0.41266    1.06105    0.41393   1.00
C3       0.44763    1.08097    0.40510   1.00
O2       0.47798    1.06174    0.38694   1.00
C3       0.37959    1.08326    0.42479   1.00
H1       0.35268    1.06885    0.43270   1.00
C3a      0.44851    1.12213    0.40630   1.00
H1       0.47484    1.13702    0.39731   1.00
C3b      0.38022    1.12422    0.42474   1.00
C4       0.41482    1.14400    0.41538   1.00
O_3      0.39053    1.18667    0.34834   1.00
C5       0.50721    1.05220    0.41433   1.00
H2       0.51908    1.07891    0.42874   1.00
C5       0.53993    1.03166    0.39191   1.00
H2       0.49562    1.03226    0.43727   1.00
H2       0.55798    1.05423    0.37707   1.00
H2       0.52604    1.01399    0.36843   1.00
C5       0.56560    1.00569    0.41822   1.00
H2       0.57671    1.02311    0.44321   1.00
H2       0.59092    0.99391    0.40160   1.00
H2       0.54896    0.97994    0.42940   1.00
C5       0.40538    1.15520    0.28868   1.00
H2       0.39062    1.17718    0.26983   1.00
H2       0.38243    1.13455    0.29889   1.00
C5       0.43698    1.13303    0.26571   1.00
H2       0.42457    1.12166    0.23799   1.00
C5       0.03273    1.04091    0.39830   1.00
H2       0.01745    1.02761    0.37302   1.00
H2       0.05401    1.06190    0.38576   1.00
C5       0.00281    1.06249    0.42435   1.00
H2       -0.00390   1.09190    0.41229   1.00
H2       0.01460    1.06582    0.45443   1.00
O_3      0.18500    0.93615    0.48252   1.00
C4       0.14400    0.91475    0.41463   1.00
C3c      0.12257    0.94788    0.40359   1.00
H1       0.13775    0.97408    0.39473   1.00
C3d      0.12365    0.88073    0.42553   1.00
C3       0.08146    0.94801    0.40429   1.00
O2       0.06252    0.97976    0.38859   1.00
C3       0.08273    0.88100    0.42698   1.00
H1       0.06843    0.85468    0.43685   1.00
C2       0.06061    0.91440    0.41631   1.00
C5       0.18621    0.90595    0.51052   1.00
H2       0.21662    0.89880    0.51958   1.00
H2       0.17234    0.87880    0.49909   1.00
C5       0.16378    0.91980    0.54617   1.00
H2       0.13371    0.92799    0.53692   1.00
H2       0.17809    0.94670    0.55755   1.00
C5       0.16246    0.88804    0.57768   1.00
H2       0.19240    0.87952    0.58686   1.00
H2       0.14697    0.86165    0.56679   1.00
H2       0.14670    0.89899    0.60384   1.00
C5       0.15395    0.82416    0.40789   1.00
C5       0.05430    1.00724    0.41825   1.00
H2       0.17412    0.83948    0.38759   1.00
H2       0.12788    0.81418    0.39113   1.00
H2       0.08200    1.01793    0.43162   1.00
H2       0.03605    0.99468    0.44223   1.00
H2       -0.02555   1.04640    0.42562   1.00
H2       0.22250    0.78258    0.38186   1.00
H2       0.17734    0.75831    0.36824   1.00
C2       0.26895    0.91393    0.41734   1.00
C3       0.24903    0.90510    0.38237   1.00
O2       0.26826    0.88694    0.35202   1.00
C3       0.24674    0.92479    0.45041   1.00
H1       0.26115    0.93270    0.47732   1.00
C3a      0.20787    0.90630    0.38149   1.00
H1       0.19298    0.89731    0.35516   1.00
C3b      0.20578    0.92474    0.44978   1.00
C4       0.18600    0.91538    0.41518   1.00
O_3      0.14333    0.84834    0.43947   1.00
C5       0.27780    0.91433    0.32279   1.00
H2       0.25109    0.92874    0.31092   1.00
C5       0.29834    0.89191    0.29007   1.00
H2       0.29774    0.93727    0.33438   1.00
H2       0.27577    0.87707    0.27202   1.00
H2       0.31601    0.86843    0.30396   1.00
C5       0.32431    0.91822    0.26440   1.00
H2       0.30689    0.94321    0.25329   1.00
H2       0.33609    0.90160    0.23908   1.00
H2       0.35006    0.92940    0.28104   1.00
C5       0.17480    0.78868    0.42462   1.00
H2       0.15282    0.76983    0.43938   1.00
H2       0.19545    0.79889    0.44757   1.00
C5       0.19697    0.76571    0.39302   1.00
H2       0.20834    0.73799    0.40543   1.00
C5       0.79727    1.04091    0.43170   1.00
H2       0.81255    1.02761    0.45698   1.00
H2       0.77599    1.06190    0.44424   1.00
C5       0.82719    1.06249    0.40565   1.00
H2       0.83390    1.09190    0.41771   1.00
H2       0.81540    1.06582    0.37557   1.00
O_3      0.64500    0.93615    0.34748   1.00
C4       0.68600    0.91475    0.41537   1.00
C3c      0.70743    0.94788    0.42641   1.00
H1       0.69225    0.97408    0.43527   1.00
C3d      0.70635    0.88073    0.40447   1.00
C3       0.74854    0.94801    0.42571   1.00
O2       0.76748    0.97976    0.44141   1.00
C3       0.74727    0.88100    0.40302   1.00
H1       0.76157    0.85468    0.39315   1.00
C2       0.76939    0.91440    0.41369   1.00
C5       0.64379    0.90595    0.31948   1.00
H2       0.61338    0.89880    0.31042   1.00
H2       0.65766    0.87880    0.33091   1.00
C5       0.66622    0.91980    0.28383   1.00
H2       0.69629    0.92799    0.29308   1.00
H2       0.65191    0.94670    0.27245   1.00
C5       0.66754    0.88804    0.25232   1.00
H2       0.63760    0.87952    0.24314   1.00
H2       0.68303    0.86165    0.26321   1.00
H2       0.68330    0.89899    0.22616   1.00
C5       0.67605    0.82416    0.42211   1.00
C5       0.77570    1.00724    0.41175   1.00
H2       0.65588    0.83948    0.44241   1.00
H2       0.70212    0.81418    0.43887   1.00
H2       0.74800    1.01793    0.39838   1.00
H2       0.79395    0.99468    0.38777   1.00
H2       0.85555    1.04640    0.40438   1.00
H2       0.60750    0.78258    0.44814   1.00
H2       0.65266    0.75831    0.46176   1.00
C2       0.56105    0.91393    0.41266   1.00
C3       0.58097    0.90510    0.44763   1.00
O2       0.56174    0.88694    0.47798   1.00
C3       0.58326    0.92479    0.37959   1.00
H1       0.56885    0.93270    0.35268   1.00
C3a      0.62213    0.90630    0.44851   1.00
H1       0.63702    0.89731    0.47484   1.00
C3b      0.62422    0.92474    0.38022   1.00
C4       0.64400    0.91538    0.41482   1.00
O_3      0.68667    0.84834    0.39053   1.00
C5       0.55220    0.91433    0.50721   1.00
H2       0.57891    0.92874    0.51908   1.00
C5       0.53166    0.89191    0.53993   1.00
H2       0.53226    0.93727    0.49562   1.00
H2       0.55423    0.87707    0.55798   1.00
H2       0.51399    0.86843    0.52604   1.00
C5       0.50569    0.91822    0.56560   1.00
H2       0.52311    0.94321    0.57671   1.00
H2       0.49391    0.90160    0.59092   1.00
H2       0.47994    0.92940    0.54896   1.00
C5       0.65520    0.78868    0.40538   1.00
H2       0.67718    0.76983    0.39062   1.00
H2       0.63455    0.79889    0.38243   1.00
C5       0.63303    0.76571    0.43698   1.00
H2       0.62166    0.73799    0.42457   1.00
C5       0.39830    0.53273    0.54091   1.00
H2       0.37302    0.51745    0.52761   1.00
H2       0.38576    0.55401    0.56190   1.00
C5       0.42435    0.50281    0.56249   1.00
H2       0.41229    0.49610    0.59190   1.00
H2       0.45443    0.51460    0.56582   1.00
O_3      0.48252    0.68500    0.43615   1.00
C4       0.41463    0.64400    0.41475   1.00
C3c      0.40359    0.62257    0.44788   1.00
H1       0.39473    0.63775    0.47408   1.00
C3d      0.42553    0.62365    0.38073   1.00
C3       0.40429    0.58146    0.44801   1.00
O2       0.38859    0.56252    0.47976   1.00
C3       0.42698    0.58273    0.38100   1.00
H1       0.43685    0.56843    0.35468   1.00
C2       0.41631    0.56061    0.41440   1.00
C5       0.51052    0.68621    0.40595   1.00
H2       0.51958    0.71662    0.39880   1.00
H2       0.49909    0.67234    0.37880   1.00
C5       0.54617    0.66378    0.41980   1.00
H2       0.53692    0.63371    0.42799   1.00
H2       0.55755    0.67809    0.44670   1.00
C5       0.57768    0.66246    0.38804   1.00
H2       0.58686    0.69240    0.37952   1.00
H2       0.56679    0.64697    0.36165   1.00
H2       0.60384    0.64670    0.39899   1.00
C5       0.40789    0.65395    0.32416   1.00
C5       0.41825    0.55430    0.50724   1.00
H2       0.38759    0.67412    0.33948   1.00
H2       0.39113    0.62788    0.31418   1.00
H2       0.43162    0.58200    0.51793   1.00
H2       0.44223    0.53605    0.49468   1.00
H2       0.42562    0.47445    0.54640   1.00
H2       0.38186    0.72250    0.28258   1.00
H2       0.36824    0.67734    0.25831   1.00
C2       0.41734    0.76895    0.41393   1.00
C3       0.38237    0.74903    0.40510   1.00
O2       0.35202    0.76826    0.38694   1.00
C3       0.45041    0.74674    0.42479   1.00
H1       0.47732    0.76115    0.43270   1.00
C3a      0.38149    0.70787    0.40630   1.00
H1       0.35516    0.69298    0.39731   1.00
C3b      0.44978    0.70578    0.42474   1.00
C4       0.41518    0.68600    0.41538   1.00
O_3      0.43947    0.64333    0.34834   1.00
C5       0.32279    0.77780    0.41433   1.00
H2       0.31092    0.75109    0.42874   1.00
C5       0.29007    0.79834    0.39191   1.00
H2       0.33438    0.79774    0.43727   1.00
H2       0.27202    0.77577    0.37707   1.00
H2       0.30396    0.81601    0.36843   1.00
C5       0.26440    0.82431    0.41822   1.00
H2       0.25329    0.80689    0.44321   1.00
H2       0.23908    0.83609    0.40160   1.00
H2       0.28104    0.85006    0.42940   1.00
C5       0.42462    0.67480    0.28868   1.00
H2       0.43938    0.65282    0.26983   1.00
H2       0.44757    0.69545    0.29889   1.00
C5       0.39302    0.69697    0.26571   1.00
H2       0.40543    0.70834    0.23799   1.00
C5       0.54091    0.89830    0.03273   1.00
H2       0.52761    0.87302    0.01745   1.00
H2       0.56190    0.88576    0.05401   1.00
C5       0.56249    0.92435    0.00281   1.00
H2       0.59190    0.91229    -0.00390   1.00
H2       0.56582    0.95443    0.01460   1.00
O_3      0.43615    0.98252    0.18500   1.00
C4       0.41475    0.91463    0.14400   1.00
C3c      0.44788    0.90359    0.12257   1.00
H1       0.47408    0.89473    0.13775   1.00
C3d      0.38073    0.92553    0.12365   1.00
C3       0.44801    0.90429    0.08146   1.00
O2       0.47976    0.88859    0.06252   1.00
C3       0.38100    0.92698    0.08273   1.00
H1       0.35468    0.93685    0.06843   1.00
C2       0.41440    0.91631    0.06061   1.00
C5       0.40595    1.01052    0.18621   1.00
H2       0.39880    1.01958    0.21662   1.00
H2       0.37880    0.99909    0.17234   1.00
C5       0.41980    1.04617    0.16378   1.00
H2       0.42799    1.03692    0.13371   1.00
H2       0.44670    1.05755    0.17809   1.00
C5       0.38804    1.07768    0.16246   1.00
H2       0.37952    1.08686    0.19240   1.00
H2       0.36165    1.06679    0.14697   1.00
H2       0.39899    1.10384    0.14670   1.00
C5       0.32416    0.90789    0.15395   1.00
C5       0.50724    0.91825    0.05430   1.00
H2       0.33948    0.88759    0.17412   1.00
H2       0.31418    0.89113    0.12788   1.00
H2       0.51793    0.93162    0.08200   1.00
H2       0.49468    0.94223    0.03605   1.00
H2       0.54640    0.92562    -0.02555   1.00
H2       0.28258    0.88186    0.22250   1.00
H2       0.25831    0.86824    0.17734   1.00
C2       0.41393    0.91734    0.26895   1.00
C3       0.40510    0.88237    0.24903   1.00
O2       0.38694    0.85202    0.26826   1.00
C3       0.42479    0.95041    0.24674   1.00
H1       0.43270    0.97732    0.26115   1.00
C3a      0.40630    0.88149    0.20787   1.00
H1       0.39731    0.85516    0.19298   1.00
C3b      0.42474    0.94978    0.20578   1.00
C4       0.41538    0.91518    0.18600   1.00
O_3      0.34834    0.93947    0.14333   1.00
C5       0.41433    0.82279    0.27780   1.00
H2       0.42874    0.81092    0.25109   1.00
C5       0.39191    0.79007    0.29834   1.00
H2       0.43727    0.83438    0.29774   1.00
H2       0.37707    0.77202    0.27577   1.00
H2       0.36843    0.80396    0.31601   1.00
C5       0.41822    0.76440    0.32431   1.00
H2       0.44321    0.75329    0.30689   1.00
H2       0.40160    0.73908    0.33609   1.00
H2       0.42940    0.78104    0.35006   1.00
C5       0.28868    0.92462    0.17480   1.00
H2       0.26983    0.93938    0.15282   1.00
H2       0.29889    0.94757    0.19545   1.00
C5       0.26571    0.89302    0.19697   1.00
H2       0.23799    0.90543    0.20834   1.00
C5       1.04091    0.43170    0.79727   1.00
H2       1.02761    0.45698    0.81255   1.00
H2       1.06190    0.44424    0.77599   1.00
C5       1.06249    0.40565    0.82719   1.00
H2       1.09190    0.41771    0.83390   1.00
H2       1.06582    0.37557    0.81540   1.00
O_3      0.93615    0.34748    0.64500   1.00
C4       0.91475    0.41537    0.68600   1.00
C3c      0.94788    0.42641    0.70743   1.00
H1       0.97408    0.43527    0.69225   1.00
C3d      0.88073    0.40447    0.70635   1.00
C3       0.94801    0.42571    0.74854   1.00
O2       0.97976    0.44141    0.76748   1.00
C3       0.88100    0.40302    0.74727   1.00
H1       0.85468    0.39315    0.76157   1.00
C2       0.91440    0.41369    0.76939   1.00
C5       0.90595    0.31948    0.64379   1.00
H2       0.89880    0.31042    0.61338   1.00
H2       0.87880    0.33091    0.65766   1.00
C5       0.91980    0.28383    0.66622   1.00
H2       0.92799    0.29308    0.69629   1.00
H2       0.94670    0.27245    0.65191   1.00
C5       0.88804    0.25232    0.66754   1.00
H2       0.87952    0.24314    0.63760   1.00
H2       0.86165    0.26321    0.68303   1.00
H2       0.89899    0.22616    0.68330   1.00
C5       0.82416    0.42211    0.67605   1.00
C5       1.00724    0.41175    0.77570   1.00
H2       0.83948    0.44241    0.65588   1.00
H2       0.81418    0.43887    0.70212   1.00
H2       1.01793    0.39838    0.74800   1.00
H2       0.99468    0.38777    0.79395   1.00
H2       1.04640    0.40438    0.85555   1.00
H2       0.78258    0.44814    0.60750   1.00
H2       0.75831    0.46176    0.65266   1.00
C2       0.91393    0.41266    0.56105   1.00
C3       0.90510    0.44763    0.58097   1.00
O2       0.88694    0.47798    0.56174   1.00
C3       0.92479    0.37959    0.58326   1.00
H1       0.93270    0.35268    0.56885   1.00
C3a      0.90630    0.44851    0.62213   1.00
H1       0.89731    0.47484    0.63702   1.00
C3b      0.92474    0.38022    0.62422   1.00
C4       0.91538    0.41482    0.64400   1.00
O_3      0.84834    0.39053    0.68667   1.00
C5       0.91433    0.50721    0.55220   1.00
H2       0.92874    0.51908    0.57891   1.00
C5       0.89191    0.53993    0.53166   1.00
H2       0.93727    0.49562    0.53226   1.00
H2       0.87707    0.55798    0.55423   1.00
H2       0.86843    0.52604    0.51399   1.00
C5       0.91822    0.56560    0.50569   1.00
H2       0.94321    0.57671    0.52311   1.00
H2       0.90160    0.59092    0.49391   1.00
H2       0.92940    0.54896    0.47994   1.00
C5       0.78868    0.40538    0.65520   1.00
H2       0.76983    0.39062    0.67718   1.00
H2       0.79889    0.38243    0.63455   1.00
C5       0.76571    0.43698    0.63303   1.00
H2       0.73799    0.42457    0.62166   1.00
C5       0.93170    0.79727    0.54091   1.00
H2       0.95698    0.81255    0.52761   1.00
H2       0.94424    0.77599    0.56190   1.00
C5       0.90565    0.82719    0.56249   1.00
H2       0.91771    0.83390    0.59190   1.00
H2       0.87557    0.81540    0.56582   1.00
O_3      0.84748    0.64500    0.43615   1.00
C4       0.91537    0.68600    0.41475   1.00
C3c      0.92641    0.70743    0.44788   1.00
H1       0.93527    0.69225    0.47408   1.00
C3d      0.90447    0.70635    0.38073   1.00
C3       0.92571    0.74854    0.44801   1.00
O2       0.94141    0.76748    0.47976   1.00
C3       0.90302    0.74727    0.38100   1.00
H1       0.89315    0.76157    0.35468   1.00
C2       0.91369    0.76939    0.41440   1.00
C5       0.81948    0.64379    0.40595   1.00
H2       0.81042    0.61338    0.39880   1.00
H2       0.83091    0.65766    0.37880   1.00
C5       0.78383    0.66622    0.41980   1.00
H2       0.79308    0.69629    0.42799   1.00
H2       0.77245    0.65191    0.44670   1.00
C5       0.75232    0.66754    0.38804   1.00
H2       0.74314    0.63760    0.37952   1.00
H2       0.76321    0.68303    0.36165   1.00
H2       0.72616    0.68330    0.39899   1.00
C5       0.92211    0.67605    0.32416   1.00
C5       0.91175    0.77570    0.50724   1.00
H2       0.94241    0.65588    0.33948   1.00
H2       0.93887    0.70212    0.31418   1.00
H2       0.89838    0.74800    0.51793   1.00
H2       0.88777    0.79395    0.49468   1.00
H2       0.90438    0.85555    0.54640   1.00
H2       0.94814    0.60750    0.28258   1.00
H2       0.96176    0.65266    0.25831   1.00
C2       0.91266    0.56105    0.41393   1.00
C3       0.94763    0.58097    0.40510   1.00
O2       0.97798    0.56174    0.38694   1.00
C3       0.87959    0.58326    0.42479   1.00
H1       0.85268    0.56885    0.43270   1.00
C3a      0.94851    0.62213    0.40630   1.00
H1       0.97484    0.63702    0.39731   1.00
C3b      0.88022    0.62422    0.42474   1.00
C4       0.91482    0.64400    0.41538   1.00
O_3      0.89053    0.68667    0.34834   1.00
C5       1.00721    0.55220    0.41433   1.00
H2       1.01908    0.57891    0.42874   1.00
C5       1.03993    0.53166    0.39191   1.00
H2       0.99562    0.53226    0.43727   1.00
H2       1.05798    0.55423    0.37707   1.00
H2       1.02604    0.51399    0.36843   1.00
C5       1.06560    0.50569    0.41822   1.00
H2       1.07671    0.52311    0.44321   1.00
H2       1.09092    0.49391    0.40160   1.00
H2       1.04896    0.47994    0.42940   1.00
C5       0.90538    0.65520    0.28868   1.00
H2       0.89062    0.67718    0.26983   1.00
H2       0.88243    0.63455    0.29889   1.00
C5       0.93698    0.63303    0.26571   1.00
H2       0.92457    0.62166    0.23799   1.00
C5       0.53273    0.54091    0.39830   1.00
H2       0.51745    0.52761    0.37302   1.00
H2       0.55401    0.56190    0.38576   1.00
C5       0.50281    0.56249    0.42435   1.00
H2       0.49610    0.59190    0.41229   1.00
H2       0.51460    0.56582    0.45443   1.00
O_3      0.68500    0.43615    0.48252   1.00
C4       0.64400    0.41475    0.41463   1.00
C3c      0.62257    0.44788    0.40359   1.00
H1       0.63775    0.47408    0.39473   1.00
C3d      0.62365    0.38073    0.42553   1.00
C3       0.58146    0.44801    0.40429   1.00
O2       0.56252    0.47976    0.38859   1.00
C3       0.58273    0.38100    0.42698   1.00
H1       0.56843    0.35468    0.43685   1.00
C2       0.56061    0.41440    0.41631   1.00
C5       0.68621    0.40595    0.51052   1.00
H2       0.71662    0.39880    0.51958   1.00
H2       0.67234    0.37880    0.49909   1.00
C5       0.66378    0.41980    0.54617   1.00
H2       0.63371    0.42799    0.53692   1.00
H2       0.67809    0.44670    0.55755   1.00
C5       0.66246    0.38804    0.57768   1.00
H2       0.69240    0.37952    0.58686   1.00
H2       0.64697    0.36165    0.56679   1.00
H2       0.64670    0.39899    0.60384   1.00
C5       0.65395    0.32416    0.40789   1.00
C5       0.55430    0.50724    0.41825   1.00
H2       0.67412    0.33948    0.38759   1.00
H2       0.62788    0.31418    0.39113   1.00
H2       0.58200    0.51793    0.43162   1.00
H2       0.53605    0.49468    0.44223   1.00
H2       0.47445    0.54640    0.42562   1.00
H2       0.72250    0.28258    0.38186   1.00
H2       0.67734    0.25831    0.36824   1.00
C2       0.76895    0.41393    0.41734   1.00
C3       0.74903    0.40510    0.38237   1.00
O2       0.76826    0.38694    0.35202   1.00
C3       0.74674    0.42479    0.45041   1.00
H1       0.76115    0.43270    0.47732   1.00
C3a      0.70787    0.40630    0.38149   1.00
H1       0.69298    0.39731    0.35516   1.00
C3b      0.70578    0.42474    0.44978   1.00
C4       0.68600    0.41538    0.41518   1.00
O_3      0.64333    0.34834    0.43947   1.00
C5       0.77780    0.41433    0.32279   1.00
H2       0.75109    0.42874    0.31092   1.00
C5       0.79834    0.39191    0.29007   1.00
H2       0.79774    0.43727    0.33438   1.00
H2       0.77577    0.37707    0.27202   1.00
H2       0.81601    0.36843    0.30396   1.00
C5       0.82431    0.41822    0.26440   1.00
H2       0.80689    0.44321    0.25329   1.00
H2       0.83609    0.40160    0.23908   1.00
H2       0.85006    0.42940    0.28104   1.00
C5       0.67480    0.28868    0.42462   1.00
H2       0.65282    0.26983    0.43938   1.00
H2       0.69545    0.29889    0.44757   1.00
C5       0.69697    0.26571    0.39302   1.00
H2       0.70834    0.23799    0.40543   1.00
C5       1.29727    0.54091    0.43170   1.00
H2       1.31255    0.52761    0.45698   1.00
H2       1.27599    0.56190    0.44424   1.00
C5       1.32719    0.56249    0.40565   1.00
H2       1.33390    0.59190    0.41771   1.00
H2       1.31540    0.56582    0.37557   1.00
O_3      1.14500    0.43615    0.34748   1.00
C4       1.18600    0.41475    0.41537   1.00
C3c      1.20743    0.44788    0.42641   1.00
H1       1.19225    0.47408    0.43527   1.00
C3d      1.20635    0.38073    0.40447   1.00
C3       1.24854    0.44801    0.42571   1.00
O2       1.26748    0.47976    0.44141   1.00
C3       1.24727    0.38100    0.40302   1.00
H1       1.26157    0.35468    0.39315   1.00
C2       1.26939    0.41440    0.41369   1.00
C5       1.14379    0.40595    0.31948   1.00
H2       1.11338    0.39880    0.31042   1.00
H2       1.15766    0.37880    0.33091   1.00
C5       1.16622    0.41980    0.28383   1.00
H2       1.19629    0.42799    0.29308   1.00
H2       1.15191    0.44670    0.27245   1.00
C5       1.16754    0.38804    0.25232   1.00
H2       1.13760    0.37952    0.24314   1.00
H2       1.18303    0.36165    0.26321   1.00
H2       1.18330    0.39899    0.22616   1.00
C5       1.17605    0.32416    0.42211   1.00
C5       1.27570    0.50724    0.41175   1.00
H2       1.15588    0.33948    0.44241   1.00
H2       1.20212    0.31418    0.43887   1.00
H2       1.24800    0.51793    0.39838   1.00
H2       1.29395    0.49468    0.38777   1.00
H2       1.35555    0.54640    0.40438   1.00
H2       1.10750    0.28258    0.44814   1.00
H2       1.15266    0.25831    0.46176   1.00
C2       1.06105    0.41393    0.41266   1.00
C3       1.08097    0.40510    0.44763   1.00
O2       1.06174    0.38694    0.47798   1.00
C3       1.08326    0.42479    0.37959   1.00
H1       1.06885    0.43270    0.35268   1.00
C3a      1.12213    0.40630    0.44851   1.00
H1       1.13702    0.39731    0.47484   1.00
C3b      1.12422    0.42474    0.38022   1.00
C4       1.14400    0.41538    0.41482   1.00
O_3      1.18667    0.34834    0.39053   1.00
C5       1.05220    0.41433    0.50721   1.00
H2       1.07891    0.42874    0.51908   1.00
C5       1.03166    0.39191    0.53993   1.00
H2       1.03226    0.43727    0.49562   1.00
H2       1.05423    0.37707    0.55798   1.00
H2       1.01399    0.36843    0.52604   1.00
C5       1.00569    0.41822    0.56560   1.00
H2       1.02311    0.44321    0.57671   1.00
H2       0.99391    0.40160    0.59092   1.00
H2       0.97994    0.42940    0.54896   1.00
C5       1.15520    0.28868    0.40538   1.00
H2       1.17718    0.26983    0.39062   1.00
H2       1.13455    0.29889    0.38243   1.00
C5       1.13303    0.26571    0.43698   1.00
H2       1.12166    0.23799    0.42457   1.00
C5       0.89830    0.03273    0.54091   1.00
H2       0.87302    0.01745    0.52761   1.00
H2       0.88576    0.05401    0.56190   1.00
C5       0.92435    0.00281    0.56249   1.00
H2       0.91229    -0.00390   0.59190   1.00
H2       0.95443    0.01460    0.56582   1.00
O_3      0.98252    0.18500    0.43615   1.00
C4       0.91463    0.14400    0.41475   1.00
C3c      0.90359    0.12257    0.44788   1.00
H1       0.89473    0.13775    0.47408   1.00
C3d      0.92553    0.12365    0.38073   1.00
C3       0.90429    0.08146    0.44801   1.00
O2       0.88859    0.06252    0.47976   1.00
C3       0.92698    0.08273    0.38100   1.00
H1       0.93685    0.06843    0.35468   1.00
C2       0.91631    0.06061    0.41440   1.00
C5       1.01052    0.18621    0.40595   1.00
H2       1.01958    0.21662    0.39880   1.00
H2       0.99909    0.17234    0.37880   1.00
C5       1.04617    0.16378    0.41980   1.00
H2       1.03692    0.13371    0.42799   1.00
H2       1.05755    0.17809    0.44670   1.00
C5       1.07768    0.16246    0.38804   1.00
H2       1.08686    0.19240    0.37952   1.00
H2       1.06679    0.14697    0.36165   1.00
H2       1.10384    0.14670    0.39899   1.00
C5       0.90789    0.15395    0.32416   1.00
C5       0.91825    0.05430    0.50724   1.00
H2       0.88759    0.17412    0.33948   1.00
H2       0.89113    0.12788    0.31418   1.00
H2       0.93162    0.08200    0.51793   1.00
H2       0.94223    0.03605    0.49468   1.00
H2       0.92562    -0.02555   0.54640   1.00
H2       0.88186    0.22250    0.28258   1.00
H2       0.86824    0.17734    0.25831   1.00
C2       0.91734    0.26895    0.41393   1.00
C3       0.88237    0.24903    0.40510   1.00
O2       0.85202    0.26826    0.38694   1.00
C3       0.95041    0.24674    0.42479   1.00
H1       0.97732    0.26115    0.43270   1.00
C3a      0.88149    0.20787    0.40630   1.00
H1       0.85516    0.19298    0.39731   1.00
C3b      0.94978    0.20578    0.42474   1.00
C4       0.91518    0.18600    0.41538   1.00
O_3      0.93947    0.14333    0.34834   1.00
C5       0.82279    0.27780    0.41433   1.00
H2       0.81092    0.25109    0.42874   1.00
C5       0.79007    0.29834    0.39191   1.00
H2       0.83438    0.29774    0.43727   1.00
H2       0.77202    0.27577    0.37707   1.00
H2       0.80396    0.31601    0.36843   1.00
C5       0.76440    0.32431    0.41822   1.00
H2       0.75329    0.30689    0.44321   1.00
H2       0.73908    0.33609    0.40160   1.00
H2       0.78104    0.35006    0.42940   1.00
C5       0.92462    0.17480    0.28868   1.00
H2       0.93938    0.15282    0.26983   1.00
H2       0.94757    0.19545    0.29889   1.00
C5       0.89302    0.19697    0.26571   1.00
H2       0.90543    0.20834    0.23799   1.00
C5       1.04091    0.39830    0.03273   1.00
H2       1.02761    0.37302    0.01745   1.00
H2       1.06190    0.38576    0.05401   1.00
C5       1.06249    0.42435    0.00281   1.00
H2       1.09190    0.41229    -0.00390   1.00
H2       1.06582    0.45443    0.01460   1.00
O_3      0.93615    0.48252    0.18500   1.00
C4       0.91475    0.41463    0.14400   1.00
C3c      0.94788    0.40359    0.12257   1.00
H1       0.97408    0.39473    0.13775   1.00
C3d      0.88073    0.42553    0.12365   1.00
C3       0.94801    0.40429    0.08146   1.00
O2       0.97976    0.38859    0.06252   1.00
C3       0.88100    0.42698    0.08273   1.00
H1       0.85468    0.43685    0.06843   1.00
C2       0.91440    0.41631    0.06061   1.00
C5       0.90595    0.51052    0.18621   1.00
H2       0.89880    0.51958    0.21662   1.00
H2       0.87880    0.49909    0.17234   1.00
C5       0.91980    0.54617    0.16378   1.00
H2       0.92799    0.53692    0.13371   1.00
H2       0.94670    0.55755    0.17809   1.00
C5       0.88804    0.57768    0.16246   1.00
H2       0.87952    0.58686    0.19240   1.00
H2       0.86165    0.56679    0.14697   1.00
H2       0.89899    0.60384    0.14670   1.00
C5       0.82416    0.40789    0.15395   1.00
C5       1.00724    0.41825    0.05430   1.00
H2       0.83948    0.38759    0.17412   1.00
H2       0.81418    0.39113    0.12788   1.00
H2       1.01793    0.43162    0.08200   1.00
H2       0.99468    0.44223    0.03605   1.00
H2       1.04640    0.42562    -0.02555   1.00
H2       0.78258    0.38186    0.22250   1.00
H2       0.75831    0.36824    0.17734   1.00
C2       0.91393    0.41734    0.26895   1.00
C3       0.90510    0.38237    0.24903   1.00
O2       0.88694    0.35202    0.26826   1.00
C3       0.92479    0.45041    0.24674   1.00
H1       0.93270    0.47732    0.26115   1.00
C3a      0.90630    0.38149    0.20787   1.00
H1       0.89731    0.35516    0.19298   1.00
C3b      0.92474    0.44978    0.20578   1.00
C4       0.91538    0.41518    0.18600   1.00
O_3      0.84834    0.43947    0.14333   1.00
C5       0.91433    0.32279    0.27780   1.00
H2       0.92874    0.31092    0.25109   1.00
C5       0.89191    0.29007    0.29834   1.00
H2       0.93727    0.33438    0.29774   1.00
H2       0.87707    0.27202    0.27577   1.00
H2       0.86843    0.30396    0.31601   1.00
C5       0.91822    0.26440    0.32431   1.00
H2       0.94321    0.25329    0.30689   1.00
H2       0.90160    0.23908    0.33609   1.00
H2       0.92940    0.28104    0.35006   1.00
C5       0.78868    0.42462    0.17480   1.00
H2       0.76983    0.43938    0.15282   1.00
H2       0.79889    0.44757    0.19545   1.00
C5       0.76571    0.39302    0.19697   1.00
H2       0.73799    0.40543    0.20834   1.00
