data_IRMOF10_SG202_interpen_Ligand11cp_label_k.

_audit_creation_method             'generated by an auxiliary program of Tobunporous'

_symmetry_space_group_name_H-M     'P 1'
_symmetry_Int_Tables_number        1
_symmetry_cell_setting             triclinic

_cell_length_a                    34.2800
_cell_length_b                    34.2800
_cell_length_c                    34.2800
_cell_angle_alpha                 90.0000
_cell_angle_beta                  90.0000
_cell_angle_gamma                 90.0000

loop_
_atom_site_label
_atom_site_fract_x
_atom_site_fract_y
_atom_site_fract_z
_atom_site_occupancy
O1       0.75000    0.75000    0.75000   1.00
Zn1      0.71720    0.78280    0.78280   1.00
Zn1      0.78280    0.71720    0.78280   1.00
Zn1      0.78280    0.78280    0.71720   1.00
Zn1      0.71720    0.71720    0.71720   1.00
O2       0.72650    0.77350    0.83820   1.00
O2       0.72650    0.83820    0.77350   1.00
O2       0.66180    0.77350    0.77350   1.00
O2       0.77350    0.72650    0.83820   1.00
O2       0.83820    0.72650    0.77350   1.00
O2       0.77350    0.66180    0.77350   1.00
O2       0.77350    0.83820    0.72650   1.00
O2       0.83820    0.77350    0.72650   1.00
O2       0.77350    0.77350    0.66180   1.00
O2       0.66180    0.72650    0.72650   1.00
O2       0.72650    0.66180    0.72650   1.00
O2       0.72650    0.72650    0.66180   1.00
C1       0.75000    0.75000    0.85520   1.00
C1       0.75000    0.85520    0.75000   1.00
C1       0.64480    0.75000    0.75000   1.00
C1       0.85520    0.75000    0.75000   1.00
C1       0.75000    0.64480    0.75000   1.00
C1       0.75000    0.75000    0.64480   1.00
O1       0.25000    0.25000    0.75000   1.00
Zn1      0.21720    0.28280    0.78280   1.00
Zn1      0.28280    0.21720    0.78280   1.00
Zn1      0.28280    0.28280    0.71720   1.00
Zn1      0.21720    0.21720    0.71720   1.00
O2       0.22650    0.27350    0.83820   1.00
O2       0.22650    0.33820    0.77350   1.00
O2       0.16180    0.27350    0.77350   1.00
O2       0.27350    0.22650    0.83820   1.00
O2       0.33820    0.22650    0.77350   1.00
O2       0.27350    0.16180    0.77350   1.00
O2       0.27350    0.33820    0.72650   1.00
O2       0.33820    0.27350    0.72650   1.00
O2       0.27350    0.27350    0.66180   1.00
O2       0.16180    0.22650    0.72650   1.00
O2       0.22650    0.16180    0.72650   1.00
O2       0.22650    0.22650    0.66180   1.00
C1       0.25000    0.25000    0.85520   1.00
C1       0.25000    0.35520    0.75000   1.00
C1       0.14480    0.25000    0.75000   1.00
C1       0.35520    0.25000    0.75000   1.00
C1       0.25000    0.14480    0.75000   1.00
C1       0.25000    0.25000    0.64480   1.00
O1       0.25000    0.75000    0.25000   1.00
Zn1      0.21720    0.78280    0.28280   1.00
Zn1      0.28280    0.71720    0.28280   1.00
Zn1      0.28280    0.78280    0.21720   1.00
Zn1      0.21720    0.71720    0.21720   1.00
O2       0.22650    0.77350    0.33820   1.00
O2       0.22650    0.83820    0.27350   1.00
O2       0.16180    0.77350    0.27350   1.00
O2       0.27350    0.72650    0.33820   1.00
O2       0.33820    0.72650    0.27350   1.00
O2       0.27350    0.66180    0.27350   1.00
O2       0.27350    0.83820    0.22650   1.00
O2       0.33820    0.77350    0.22650   1.00
O2       0.27350    0.77350    0.16180   1.00
O2       0.16180    0.72650    0.22650   1.00
O2       0.22650    0.66180    0.22650   1.00
O2       0.22650    0.72650    0.16180   1.00
C1       0.25000    0.75000    0.35520   1.00
C1       0.25000    0.85520    0.25000   1.00
C1       0.14480    0.75000    0.25000   1.00
C1       0.35520    0.75000    0.25000   1.00
C1       0.25000    0.64480    0.25000   1.00
C1       0.25000    0.75000    0.14480   1.00
O1       0.75000    0.25000    0.25000   1.00
Zn1      0.71720    0.28280    0.28280   1.00
Zn1      0.78280    0.21720    0.28280   1.00
Zn1      0.78280    0.28280    0.21720   1.00
Zn1      0.71720    0.21720    0.21720   1.00
O2       0.72650    0.27350    0.33820   1.00
O2       0.72650    0.33820    0.27350   1.00
O2       0.66180    0.27350    0.27350   1.00
O2       0.77350    0.22650    0.33820   1.00
O2       0.83820    0.22650    0.27350   1.00
O2       0.77350    0.16180    0.27350   1.00
O2       0.77350    0.33820    0.22650   1.00
O2       0.83820    0.27350    0.22650   1.00
O2       0.77350    0.27350    0.16180   1.00
O2       0.66180    0.22650    0.22650   1.00
O2       0.72650    0.16180    0.22650   1.00
O2       0.72650    0.22650    0.16180   1.00
C1       0.75000    0.25000    0.35520   1.00
C1       0.75000    0.35520    0.25000   1.00
C1       0.64480    0.25000    0.25000   1.00
C1       0.85520    0.25000    0.25000   1.00
C1       0.75000    0.14480    0.25000   1.00
C1       0.75000    0.25000    0.14480   1.00
O1       0.25000    0.25000    0.25000   1.00
Zn1      0.28280    0.21720    0.21720   1.00
Zn1      0.21720    0.28280    0.21720   1.00
Zn1      0.21720    0.21720    0.28280   1.00
Zn1      0.28280    0.28280    0.28280   1.00
O2       0.27350    0.22650    0.16180   1.00
O2       0.27350    0.16180    0.22650   1.00
O2       0.33820    0.22650    0.22650   1.00
O2       0.22650    0.27350    0.16180   1.00
O2       0.16180    0.27350    0.22650   1.00
O2       0.22650    0.33820    0.22650   1.00
O2       0.22650    0.16180    0.27350   1.00
O2       0.16180    0.22650    0.27350   1.00
O2       0.22650    0.22650    0.33820   1.00
O2       0.33820    0.27350    0.27350   1.00
O2       0.27350    0.33820    0.27350   1.00
O2       0.27350    0.27350    0.33820   1.00
C1       0.25000    0.25000    0.14480   1.00
C1       0.25000    0.14480    0.25000   1.00
C1       0.35520    0.25000    0.25000   1.00
C1       0.14480    0.25000    0.25000   1.00
C1       0.25000    0.35520    0.25000   1.00
C1       0.25000    0.25000    0.35520   1.00
O1       0.75000    0.75000    0.25000   1.00
Zn1      0.78280    0.71720    0.21720   1.00
Zn1      0.71720    0.78280    0.21720   1.00
Zn1      0.71720    0.71720    0.28280   1.00
Zn1      0.78280    0.78280    0.28280   1.00
O2       0.77350    0.72650    0.16180   1.00
O2       0.77350    0.66180    0.22650   1.00
O2       0.83820    0.72650    0.22650   1.00
O2       0.72650    0.77350    0.16180   1.00
O2       0.66180    0.77350    0.22650   1.00
O2       0.72650    0.83820    0.22650   1.00
O2       0.72650    0.66180    0.27350   1.00
O2       0.66180    0.72650    0.27350   1.00
O2       0.72650    0.72650    0.33820   1.00
O2       0.83820    0.77350    0.27350   1.00
O2       0.77350    0.83820    0.27350   1.00
O2       0.77350    0.77350    0.33820   1.00
C1       0.75000    0.75000    0.14480   1.00
C1       0.75000    0.64480    0.25000   1.00
C1       0.85520    0.75000    0.25000   1.00
C1       0.64480    0.75000    0.25000   1.00
C1       0.75000    0.85520    0.25000   1.00
C1       0.75000    0.75000    0.35520   1.00
O1       0.75000    0.25000    0.75000   1.00
Zn1      0.78280    0.21720    0.71720   1.00
Zn1      0.71720    0.28280    0.71720   1.00
Zn1      0.71720    0.21720    0.78280   1.00
Zn1      0.78280    0.28280    0.78280   1.00
O2       0.77350    0.22650    0.66180   1.00
O2       0.77350    0.16180    0.72650   1.00
O2       0.83820    0.22650    0.72650   1.00
O2       0.72650    0.27350    0.66180   1.00
O2       0.66180    0.27350    0.72650   1.00
O2       0.72650    0.33820    0.72650   1.00
O2       0.72650    0.16180    0.77350   1.00
O2       0.66180    0.22650    0.77350   1.00
O2       0.72650    0.22650    0.83820   1.00
O2       0.83820    0.27350    0.77350   1.00
O2       0.77350    0.33820    0.77350   1.00
O2       0.77350    0.27350    0.83820   1.00
C1       0.75000    0.25000    0.64480   1.00
C1       0.75000    0.14480    0.75000   1.00
C1       0.85520    0.25000    0.75000   1.00
C1       0.64480    0.25000    0.75000   1.00
C1       0.75000    0.35520    0.75000   1.00
C1       0.75000    0.25000    0.85520   1.00
O1       0.25000    0.75000    0.75000   1.00
Zn1      0.28280    0.71720    0.71720   1.00
Zn1      0.21720    0.78280    0.71720   1.00
Zn1      0.21720    0.71720    0.78280   1.00
Zn1      0.28280    0.78280    0.78280   1.00
O2       0.27350    0.72650    0.66180   1.00
O2       0.27350    0.66180    0.72650   1.00
O2       0.33820    0.72650    0.72650   1.00
O2       0.22650    0.77350    0.66180   1.00
O2       0.16180    0.77350    0.72650   1.00
O2       0.22650    0.83820    0.72650   1.00
O2       0.22650    0.66180    0.77350   1.00
O2       0.16180    0.72650    0.77350   1.00
O2       0.22650    0.72650    0.83820   1.00
O2       0.33820    0.77350    0.77350   1.00
O2       0.27350    0.83820    0.77350   1.00
O2       0.27350    0.77350    0.83820   1.00
C1       0.25000    0.75000    0.64480   1.00
C1       0.25000    0.64480    0.75000   1.00
C1       0.35520    0.75000    0.75000   1.00
C1       0.14480    0.75000    0.75000   1.00
C1       0.25000    0.85520    0.75000   1.00
C1       0.25000    0.75000    0.85520   1.00
O1       0.91500    0.91500    0.91500   1.00
Zn1      0.88220    0.94780    0.94780   1.00
Zn1      0.94780    0.88220    0.94780   1.00
Zn1      0.94780    0.94780    0.88220   1.00
Zn1      0.88220    0.88220    0.88220   1.00
O2       0.89150    0.93850    1.00320   1.00
O2       0.89150    1.00320    0.93850   1.00
O2       0.82680    0.93850    0.93850   1.00
O2       0.93850    0.89150    1.00320   1.00
O2       1.00320    0.89150    0.93850   1.00
O2       0.93850    0.82680    0.93850   1.00
O2       0.93850    1.00320    0.89150   1.00
O2       1.00320    0.93850    0.89150   1.00
O2       0.93850    0.93850    0.82680   1.00
O2       0.82680    0.89150    0.89150   1.00
O2       0.89150    0.82680    0.89150   1.00
O2       0.89150    0.89150    0.82680   1.00
C1       0.91500    0.91500    1.02020   1.00
C1       0.91500    1.02020    0.91500   1.00
C1       0.80980    0.91500    0.91500   1.00
C1       1.02020    0.91500    0.91500   1.00
C1       0.91500    0.80980    0.91500   1.00
C1       0.91500    0.91500    0.80980   1.00
O1       0.41500    0.41500    0.91500   1.00
Zn1      0.38220    0.44780    0.94780   1.00
Zn1      0.44780    0.38220    0.94780   1.00
Zn1      0.44780    0.44780    0.88220   1.00
Zn1      0.38220    0.38220    0.88220   1.00
O2       0.39150    0.43850    1.00320   1.00
O2       0.39150    0.50320    0.93850   1.00
O2       0.32680    0.43850    0.93850   1.00
O2       0.43850    0.39150    1.00320   1.00
O2       0.50320    0.39150    0.93850   1.00
O2       0.43850    0.32680    0.93850   1.00
O2       0.43850    0.50320    0.89150   1.00
O2       0.50320    0.43850    0.89150   1.00
O2       0.43850    0.43850    0.82680   1.00
O2       0.32680    0.39150    0.89150   1.00
O2       0.39150    0.32680    0.89150   1.00
O2       0.39150    0.39150    0.82680   1.00
C1       0.41500    0.41500    1.02020   1.00
C1       0.41500    0.52020    0.91500   1.00
C1       0.30980    0.41500    0.91500   1.00
C1       0.52020    0.41500    0.91500   1.00
C1       0.41500    0.30980    0.91500   1.00
C1       0.41500    0.41500    0.80980   1.00
O1       0.41500    0.91500    0.41500   1.00
Zn1      0.38220    0.94780    0.44780   1.00
Zn1      0.44780    0.88220    0.44780   1.00
Zn1      0.44780    0.94780    0.38220   1.00
Zn1      0.38220    0.88220    0.38220   1.00
O2       0.39150    0.93850    0.50320   1.00
O2       0.39150    1.00320    0.43850   1.00
O2       0.32680    0.93850    0.43850   1.00
O2       0.43850    0.89150    0.50320   1.00
O2       0.50320    0.89150    0.43850   1.00
O2       0.43850    0.82680    0.43850   1.00
O2       0.43850    1.00320    0.39150   1.00
O2       0.50320    0.93850    0.39150   1.00
O2       0.43850    0.93850    0.32680   1.00
O2       0.32680    0.89150    0.39150   1.00
O2       0.39150    0.82680    0.39150   1.00
O2       0.39150    0.89150    0.32680   1.00
C1       0.41500    0.91500    0.52020   1.00
C1       0.41500    1.02020    0.41500   1.00
C1       0.30980    0.91500    0.41500   1.00
C1       0.52020    0.91500    0.41500   1.00
C1       0.41500    0.80980    0.41500   1.00
C1       0.41500    0.91500    0.30980   1.00
O1       0.91500    0.41500    0.41500   1.00
Zn1      0.88220    0.44780    0.44780   1.00
Zn1      0.94780    0.38220    0.44780   1.00
Zn1      0.94780    0.44780    0.38220   1.00
Zn1      0.88220    0.38220    0.38220   1.00
O2       0.89150    0.43850    0.50320   1.00
O2       0.89150    0.50320    0.43850   1.00
O2       0.82680    0.43850    0.43850   1.00
O2       0.93850    0.39150    0.50320   1.00
O2       1.00320    0.39150    0.43850   1.00
O2       0.93850    0.32680    0.43850   1.00
O2       0.93850    0.50320    0.39150   1.00
O2       1.00320    0.43850    0.39150   1.00
O2       0.93850    0.43850    0.32680   1.00
O2       0.82680    0.39150    0.39150   1.00
O2       0.89150    0.32680    0.39150   1.00
O2       0.89150    0.39150    0.32680   1.00
C1       0.91500    0.41500    0.52020   1.00
C1       0.91500    0.52020    0.41500   1.00
C1       0.80980    0.41500    0.41500   1.00
C1       1.02020    0.41500    0.41500   1.00
C1       0.91500    0.30980    0.41500   1.00
C1       0.91500    0.41500    0.30980   1.00
O1       0.41500    0.41500    0.41500   1.00
Zn1      0.44780    0.38220    0.38220   1.00
Zn1      0.38220    0.44780    0.38220   1.00
Zn1      0.38220    0.38220    0.44780   1.00
Zn1      0.44780    0.44780    0.44780   1.00
O2       0.43850    0.39150    0.32680   1.00
O2       0.43850    0.32680    0.39150   1.00
O2       0.50320    0.39150    0.39150   1.00
O2       0.39150    0.43850    0.32680   1.00
O2       0.32680    0.43850    0.39150   1.00
O2       0.39150    0.50320    0.39150   1.00
O2       0.39150    0.32680    0.43850   1.00
O2       0.32680    0.39150    0.43850   1.00
O2       0.39150    0.39150    0.50320   1.00
O2       0.50320    0.43850    0.43850   1.00
O2       0.43850    0.50320    0.43850   1.00
O2       0.43850    0.43850    0.50320   1.00
C1       0.41500    0.41500    0.30980   1.00
C1       0.41500    0.30980    0.41500   1.00
C1       0.52020    0.41500    0.41500   1.00
C1       0.30980    0.41500    0.41500   1.00
C1       0.41500    0.52020    0.41500   1.00
C1       0.41500    0.41500    0.52020   1.00
O1       0.91500    0.91500    0.41500   1.00
Zn1      0.94780    0.88220    0.38220   1.00
Zn1      0.88220    0.94780    0.38220   1.00
Zn1      0.88220    0.88220    0.44780   1.00
Zn1      0.94780    0.94780    0.44780   1.00
O2       0.93850    0.89150    0.32680   1.00
O2       0.93850    0.82680    0.39150   1.00
O2       1.00320    0.89150    0.39150   1.00
O2       0.89150    0.93850    0.32680   1.00
O2       0.82680    0.93850    0.39150   1.00
O2       0.89150    1.00320    0.39150   1.00
O2       0.89150    0.82680    0.43850   1.00
O2       0.82680    0.89150    0.43850   1.00
O2       0.89150    0.89150    0.50320   1.00
O2       1.00320    0.93850    0.43850   1.00
O2       0.93850    1.00320    0.43850   1.00
O2       0.93850    0.93850    0.50320   1.00
C1       0.91500    0.91500    0.30980   1.00
C1       0.91500    0.80980    0.41500   1.00
C1       1.02020    0.91500    0.41500   1.00
C1       0.80980    0.91500    0.41500   1.00
C1       0.91500    1.02020    0.41500   1.00
C1       0.91500    0.91500    0.52020   1.00
O1       0.91500    0.41500    0.91500   1.00
Zn1      0.94780    0.38220    0.88220   1.00
Zn1      0.88220    0.44780    0.88220   1.00
Zn1      0.88220    0.38220    0.94780   1.00
Zn1      0.94780    0.44780    0.94780   1.00
O2       0.93850    0.39150    0.82680   1.00
O2       0.93850    0.32680    0.89150   1.00
O2       1.00320    0.39150    0.89150   1.00
O2       0.89150    0.43850    0.82680   1.00
O2       0.82680    0.43850    0.89150   1.00
O2       0.89150    0.50320    0.89150   1.00
O2       0.89150    0.32680    0.93850   1.00
O2       0.82680    0.39150    0.93850   1.00
O2       0.89150    0.39150    1.00320   1.00
O2       1.00320    0.43850    0.93850   1.00
O2       0.93850    0.50320    0.93850   1.00
O2       0.93850    0.43850    1.00320   1.00
C1       0.91500    0.41500    0.80980   1.00
C1       0.91500    0.30980    0.91500   1.00
C1       1.02020    0.41500    0.91500   1.00
C1       0.80980    0.41500    0.91500   1.00
C1       0.91500    0.52020    0.91500   1.00
C1       0.91500    0.41500    1.02020   1.00
O1       0.41500    0.91500    0.91500   1.00
Zn1      0.44780    0.88220    0.88220   1.00
Zn1      0.38220    0.94780    0.88220   1.00
Zn1      0.38220    0.88220    0.94780   1.00
Zn1      0.44780    0.94780    0.94780   1.00
O2       0.43850    0.89150    0.82680   1.00
O2       0.43850    0.82680    0.89150   1.00
O2       0.50320    0.89150    0.89150   1.00
O2       0.39150    0.93850    0.82680   1.00
O2       0.32680    0.93850    0.89150   1.00
O2       0.39150    1.00320    0.89150   1.00
O2       0.39150    0.82680    0.93850   1.00
O2       0.32680    0.89150    0.93850   1.00
O2       0.39150    0.89150    1.00320   1.00
O2       0.50320    0.93850    0.93850   1.00
O2       0.43850    1.00320    0.93850   1.00
O2       0.43850    0.93850    1.00320   1.00
C1       0.41500    0.91500    0.80980   1.00
C1       0.41500    0.80980    0.91500   1.00
C1       0.52020    0.91500    0.91500   1.00
C1       0.30980    0.91500    0.91500   1.00
C1       0.41500    1.02020    0.91500   1.00
C1       0.41500    0.91500    1.02020   1.00
C4       0.75002    0.74980    0.97915   1.00
C4       0.74998    0.75020    1.02085   1.00
C3a      0.77568    0.72515    0.95746   1.00
C3       0.73056    0.72092    1.04232   1.00
C3       0.72443    0.77387    0.95768   1.00
C3a      0.76932    0.78006    1.04254   1.00
C2       0.74992    0.74999    0.89488   1.00
C2       0.74992    0.74999    1.10512   1.00
C3       0.77527    0.72569    0.91595   1.00
C3       0.73066    0.72080    1.08363   1.00
C3       0.72450    0.77401    0.91637   1.00
C3       0.76904    0.77944    1.08405   1.00
C5       0.80432    0.69834    0.97772   1.00
H1       0.71555    0.69777    1.02691   1.00
H1       0.79496    0.70705    0.89979   1.00
H1       0.71561    0.69769    1.09901   1.00
H1       0.70456    0.79307    0.90099   1.00
H1       0.78395    0.80209    1.10021   1.00
C5       0.79107    0.81271    1.02228   1.00
H1       0.70453    0.79298    0.97309   1.00
H2       0.81273    0.82574    1.04256   1.00
H2       0.80810    0.80102    0.99731   1.00
H2       0.82838    0.69060    0.95744   1.00
H2       0.81822    0.71361    1.00269   1.00
N1       0.76412    0.84287    1.00857   1.00
C6       0.74235    0.86642    1.03073   1.00
C6       0.75742    0.85286    0.97154   1.00
C6       0.72107    0.89143    1.00759   1.00
C6       0.73066    0.88282    0.96995   1.00
H3       0.74160    0.86538    1.06197   1.00
H3       0.77090    0.83904    0.94700   1.00
H3       0.70085    0.91351    1.01713   1.00
H3       0.71938    0.89680    0.94425   1.00
N1       0.78498    0.66282    0.99143   1.00
C6       0.78073    0.65155    1.02846   1.00
C6       0.76916    0.63491    0.96927   1.00
C6       0.76153    0.61628    1.03005   1.00
C6       0.75416    0.60570    0.99241   1.00
H3       0.79070    0.66810    1.05300   1.00
H3       0.76819    0.63576    0.93803   1.00
H3       0.75374    0.60009    1.05575   1.00
H3       0.73952    0.57958    0.98287   1.00
C4       0.74980    0.97915    0.75002   1.00
C4       0.75020    1.02085    0.74998   1.00
C3a      0.72515    0.95746    0.77568   1.00
C3       0.72092    1.04232    0.73056   1.00
C3       0.77387    0.95768    0.72443   1.00
C3a      0.78006    1.04254    0.76932   1.00
C2       0.74999    0.89488    0.74992   1.00
C2       0.74999    1.10512    0.74992   1.00
C3       0.72569    0.91595    0.77527   1.00
C3       0.72080    1.08363    0.73066   1.00
C3       0.77401    0.91637    0.72450   1.00
C3       0.77944    1.08405    0.76904   1.00
C5       0.69834    0.97772    0.80432   1.00
H1       0.69777    1.02691    0.71555   1.00
H1       0.70705    0.89979    0.79496   1.00
H1       0.69769    1.09901    0.71561   1.00
H1       0.79307    0.90099    0.70456   1.00
H1       0.80209    1.10021    0.78395   1.00
C5       0.81271    1.02228    0.79107   1.00
H1       0.79298    0.97309    0.70453   1.00
H2       0.82574    1.04256    0.81273   1.00
H2       0.80102    0.99731    0.80810   1.00
H2       0.69060    0.95744    0.82838   1.00
H2       0.71361    1.00269    0.81822   1.00
N1       0.84287    1.00857    0.76412   1.00
C6       0.86642    1.03073    0.74235   1.00
C6       0.85286    0.97154    0.75742   1.00
C6       0.89143    1.00759    0.72107   1.00
C6       0.88282    0.96995    0.73066   1.00
H3       0.86538    1.06197    0.74160   1.00
H3       0.83904    0.94700    0.77090   1.00
H3       0.91351    1.01713    0.70085   1.00
H3       0.89680    0.94425    0.71938   1.00
N1       0.66282    0.99143    0.78498   1.00
C6       0.65155    1.02846    0.78073   1.00
C6       0.63491    0.96927    0.76916   1.00
C6       0.61628    1.03005    0.76153   1.00
C6       0.60570    0.99241    0.75416   1.00
H3       0.66810    1.05300    0.79070   1.00
H3       0.63576    0.93803    0.76819   1.00
H3       0.60009    1.05575    0.75374   1.00
H3       0.57958    0.98287    0.73952   1.00
C4       0.52085    0.75002    0.75020   1.00
C4       0.47915    0.74998    0.74980   1.00
C3a      0.54254    0.77568    0.77485   1.00
C3       0.45768    0.73056    0.77908   1.00
C3       0.54232    0.72443    0.72613   1.00
C3a      0.45746    0.76932    0.71994   1.00
C2       0.60512    0.74992    0.75001   1.00
C2       0.39488    0.74992    0.75001   1.00
C3       0.58405    0.77527    0.77431   1.00
C3       0.41637    0.73066    0.77920   1.00
C3       0.58363    0.72450    0.72599   1.00
C3       0.41595    0.76904    0.72056   1.00
C5       0.52228    0.80432    0.80166   1.00
H1       0.47309    0.71555    0.80223   1.00
H1       0.60021    0.79496    0.79295   1.00
H1       0.40099    0.71561    0.80231   1.00
H1       0.59901    0.70456    0.70693   1.00
H1       0.39979    0.78395    0.69791   1.00
C5       0.47772    0.79107    0.68729   1.00
H1       0.52691    0.70453    0.70702   1.00
H2       0.45744    0.81273    0.67426   1.00
H2       0.50269    0.80810    0.69898   1.00
H2       0.54256    0.82838    0.80940   1.00
H2       0.49731    0.81822    0.78639   1.00
N1       0.49143    0.76412    0.65713   1.00
C6       0.46927    0.74235    0.63358   1.00
C6       0.52846    0.75742    0.64714   1.00
C6       0.49241    0.72107    0.60857   1.00
C6       0.53005    0.73066    0.61718   1.00
H3       0.43803    0.74160    0.63462   1.00
H3       0.55300    0.77090    0.66096   1.00
H3       0.48287    0.70085    0.58649   1.00
H3       0.55575    0.71938    0.60320   1.00
N1       0.50857    0.78498    0.83718   1.00
C6       0.47154    0.78073    0.84845   1.00
C6       0.53073    0.76916    0.86509   1.00
C6       0.46995    0.76153    0.88372   1.00
C6       0.50759    0.75416    0.89430   1.00
H3       0.44700    0.79070    0.83190   1.00
H3       0.56197    0.76819    0.86424   1.00
H3       0.44425    0.75374    0.89991   1.00
H3       0.51713    0.73952    0.92042   1.00
C4       0.97915    0.75002    0.74980   1.00
C4       1.02085    0.74998    0.75020   1.00
C3a      0.95746    0.77568    0.72515   1.00
C3       1.04232    0.73056    0.72092   1.00
C3       0.95768    0.72443    0.77387   1.00
C3a      1.04254    0.76932    0.78006   1.00
C2       0.89488    0.74992    0.74999   1.00
C2       1.10512    0.74992    0.74999   1.00
C3       0.91595    0.77527    0.72569   1.00
C3       1.08363    0.73066    0.72080   1.00
C3       0.91637    0.72450    0.77401   1.00
C3       1.08405    0.76904    0.77944   1.00
C5       0.97772    0.80432    0.69834   1.00
H1       1.02691    0.71555    0.69777   1.00
H1       0.89979    0.79496    0.70705   1.00
H1       1.09901    0.71561    0.69769   1.00
H1       0.90099    0.70456    0.79307   1.00
H1       1.10021    0.78395    0.80209   1.00
C5       1.02228    0.79107    0.81271   1.00
H1       0.97309    0.70453    0.79298   1.00
H2       1.04256    0.81273    0.82574   1.00
H2       0.99731    0.80810    0.80102   1.00
H2       0.95744    0.82838    0.69060   1.00
H2       1.00269    0.81822    0.71361   1.00
N1       1.00857    0.76412    0.84287   1.00
C6       1.03073    0.74235    0.86642   1.00
C6       0.97154    0.75742    0.85286   1.00
C6       1.00759    0.72107    0.89143   1.00
C6       0.96995    0.73066    0.88282   1.00
H3       1.06197    0.74160    0.86538   1.00
H3       0.94700    0.77090    0.83904   1.00
H3       1.01713    0.70085    0.91351   1.00
H3       0.94425    0.71938    0.89680   1.00
N1       0.99143    0.78498    0.66282   1.00
C6       1.02846    0.78073    0.65155   1.00
C6       0.96927    0.76916    0.63491   1.00
C6       1.03005    0.76153    0.61628   1.00
C6       0.99241    0.75416    0.60570   1.00
H3       1.05300    0.79070    0.66810   1.00
H3       0.93803    0.76819    0.63576   1.00
H3       1.05575    0.75374    0.60009   1.00
H3       0.98287    0.73952    0.57958   1.00
C4       0.75020    0.52085    0.75002   1.00
C4       0.74980    0.47915    0.74998   1.00
C3a      0.77485    0.54254    0.77568   1.00
C3       0.77908    0.45768    0.73056   1.00
C3       0.72613    0.54232    0.72443   1.00
C3a      0.71994    0.45746    0.76932   1.00
C2       0.75001    0.60512    0.74992   1.00
C2       0.75001    0.39488    0.74992   1.00
C3       0.77431    0.58405    0.77527   1.00
C3       0.77920    0.41637    0.73066   1.00
C3       0.72599    0.58363    0.72450   1.00
C3       0.72056    0.41595    0.76904   1.00
C5       0.80166    0.52228    0.80432   1.00
H1       0.80223    0.47309    0.71555   1.00
H1       0.79295    0.60021    0.79496   1.00
H1       0.80231    0.40099    0.71561   1.00
H1       0.70693    0.59901    0.70456   1.00
H1       0.69791    0.39979    0.78395   1.00
C5       0.68729    0.47772    0.79107   1.00
H1       0.70702    0.52691    0.70453   1.00
H2       0.67426    0.45744    0.81273   1.00
H2       0.69898    0.50269    0.80810   1.00
H2       0.80940    0.54256    0.82838   1.00
H2       0.78639    0.49731    0.81822   1.00
N1       0.65713    0.49143    0.76412   1.00
C6       0.63358    0.46927    0.74235   1.00
C6       0.64714    0.52846    0.75742   1.00
C6       0.60857    0.49241    0.72107   1.00
C6       0.61718    0.53005    0.73066   1.00
H3       0.63462    0.43803    0.74160   1.00
H3       0.66096    0.55300    0.77090   1.00
H3       0.58649    0.48287    0.70085   1.00
H3       0.60320    0.55575    0.71938   1.00
N1       0.83718    0.50857    0.78498   1.00
C6       0.84845    0.47154    0.78073   1.00
C6       0.86509    0.53073    0.76916   1.00
C6       0.88372    0.46995    0.76153   1.00
C6       0.89430    0.50759    0.75416   1.00
H3       0.83190    0.44700    0.79070   1.00
H3       0.86424    0.56197    0.76819   1.00
H3       0.89991    0.44425    0.75374   1.00
H3       0.92042    0.51713    0.73952   1.00
C4       0.75002    0.75020    0.52085   1.00
C4       0.74998    0.74980    0.47915   1.00
C3a      0.77568    0.77485    0.54254   1.00
C3       0.73056    0.77908    0.45768   1.00
C3       0.72443    0.72613    0.54232   1.00
C3a      0.76932    0.71994    0.45746   1.00
C2       0.74992    0.75001    0.60512   1.00
C2       0.74992    0.75001    0.39488   1.00
C3       0.77527    0.77431    0.58405   1.00
C3       0.73066    0.77920    0.41637   1.00
C3       0.72450    0.72599    0.58363   1.00
C3       0.76904    0.72056    0.41595   1.00
C5       0.80432    0.80166    0.52228   1.00
H1       0.71555    0.80223    0.47309   1.00
H1       0.79496    0.79295    0.60021   1.00
H1       0.71561    0.80231    0.40099   1.00
H1       0.70456    0.70693    0.59901   1.00
H1       0.78395    0.69791    0.39979   1.00
C5       0.79107    0.68729    0.47772   1.00
H1       0.70453    0.70702    0.52691   1.00
H2       0.81273    0.67426    0.45744   1.00
H2       0.80810    0.69898    0.50269   1.00
H2       0.82838    0.80940    0.54256   1.00
H2       0.81822    0.78639    0.49731   1.00
N1       0.76412    0.65713    0.49143   1.00
C6       0.74235    0.63358    0.46927   1.00
C6       0.75742    0.64714    0.52846   1.00
C6       0.72107    0.60857    0.49241   1.00
C6       0.73066    0.61718    0.53005   1.00
H3       0.74160    0.63462    0.43803   1.00
H3       0.77090    0.66096    0.55300   1.00
H3       0.70085    0.58649    0.48287   1.00
H3       0.71938    0.60320    0.55575   1.00
N1       0.78498    0.83718    0.50857   1.00
C6       0.78073    0.84845    0.47154   1.00
C6       0.76916    0.86509    0.53073   1.00
C6       0.76153    0.88372    0.46995   1.00
C6       0.75416    0.89430    0.50759   1.00
H3       0.79070    0.83190    0.44700   1.00
H3       0.76819    0.86424    0.56197   1.00
H3       0.75374    0.89991    0.44425   1.00
H3       0.73952    0.92042    0.51713   1.00
C4       0.25002    0.24980    0.97915   1.00
C4       0.24998    0.25020    1.02085   1.00
C3a      0.27568    0.22515    0.95746   1.00
C3       0.23056    0.22092    1.04232   1.00
C3       0.22443    0.27387    0.95768   1.00
C3a      0.26932    0.28006    1.04254   1.00
C2       0.24992    0.24999    0.89488   1.00
C2       0.24992    0.24999    1.10512   1.00
C3       0.27527    0.22569    0.91595   1.00
C3       0.23066    0.22080    1.08363   1.00
C3       0.22450    0.27401    0.91637   1.00
C3       0.26904    0.27944    1.08405   1.00
C5       0.30432    0.19834    0.97772   1.00
H1       0.21555    0.19777    1.02691   1.00
H1       0.29496    0.20705    0.89979   1.00
H1       0.21561    0.19769    1.09901   1.00
H1       0.20456    0.29307    0.90099   1.00
H1       0.28395    0.30209    1.10021   1.00
C5       0.29107    0.31271    1.02228   1.00
H1       0.20453    0.29298    0.97309   1.00
H2       0.31273    0.32574    1.04256   1.00
H2       0.30810    0.30102    0.99731   1.00
H2       0.32838    0.19060    0.95744   1.00
H2       0.31822    0.21361    1.00269   1.00
N1       0.26412    0.34287    1.00857   1.00
C6       0.24235    0.36642    1.03073   1.00
C6       0.25742    0.35286    0.97154   1.00
C6       0.22107    0.39143    1.00759   1.00
C6       0.23066    0.38282    0.96995   1.00
H3       0.24160    0.36538    1.06197   1.00
H3       0.27090    0.33904    0.94700   1.00
H3       0.20085    0.41351    1.01713   1.00
H3       0.21938    0.39680    0.94425   1.00
N1       0.28498    0.16282    0.99143   1.00
C6       0.28073    0.15155    1.02846   1.00
C6       0.26916    0.13491    0.96927   1.00
C6       0.26153    0.11628    1.03005   1.00
C6       0.25416    0.10570    0.99241   1.00
H3       0.29070    0.16810    1.05300   1.00
H3       0.26819    0.13576    0.93803   1.00
H3       0.25374    0.10009    1.05575   1.00
H3       0.23952    0.07958    0.98287   1.00
C4       0.24980    0.47915    0.75002   1.00
C4       0.25020    0.52085    0.74998   1.00
C3a      0.22515    0.45746    0.77568   1.00
C3       0.22092    0.54232    0.73056   1.00
C3       0.27387    0.45768    0.72443   1.00
C3a      0.28006    0.54254    0.76932   1.00
C2       0.24999    0.39488    0.74992   1.00
C2       0.24999    0.60512    0.74992   1.00
C3       0.22569    0.41595    0.77527   1.00
C3       0.22080    0.58363    0.73066   1.00
C3       0.27401    0.41637    0.72450   1.00
C3       0.27944    0.58405    0.76904   1.00
C5       0.19834    0.47772    0.80432   1.00
H1       0.19777    0.52691    0.71555   1.00
H1       0.20705    0.39979    0.79496   1.00
H1       0.19769    0.59901    0.71561   1.00
H1       0.29307    0.40099    0.70456   1.00
H1       0.30209    0.60021    0.78395   1.00
C5       0.31271    0.52228    0.79107   1.00
H1       0.29298    0.47309    0.70453   1.00
H2       0.32574    0.54256    0.81273   1.00
H2       0.30102    0.49731    0.80810   1.00
H2       0.19060    0.45744    0.82838   1.00
H2       0.21361    0.50269    0.81822   1.00
N1       0.34287    0.50857    0.76412   1.00
C6       0.36642    0.53073    0.74235   1.00
C6       0.35286    0.47154    0.75742   1.00
C6       0.39143    0.50759    0.72107   1.00
C6       0.38282    0.46995    0.73066   1.00
H3       0.36538    0.56197    0.74160   1.00
H3       0.33904    0.44700    0.77090   1.00
H3       0.41351    0.51713    0.70085   1.00
H3       0.39680    0.44425    0.71938   1.00
N1       0.16282    0.49143    0.78498   1.00
C6       0.15155    0.52846    0.78073   1.00
C6       0.13491    0.46927    0.76916   1.00
C6       0.11628    0.53005    0.76153   1.00
C6       0.10570    0.49241    0.75416   1.00
H3       0.16810    0.55300    0.79070   1.00
H3       0.13576    0.43803    0.76819   1.00
H3       0.10009    0.55575    0.75374   1.00
H3       0.07958    0.48287    0.73952   1.00
C4       0.02085    0.25002    0.75020   1.00
C4       -0.02085   0.24998    0.74980   1.00
C3a      0.04254    0.27568    0.77485   1.00
C3       -0.04232   0.23056    0.77908   1.00
C3       0.04232    0.22443    0.72613   1.00
C3a      -0.04254   0.26932    0.71994   1.00
C2       0.10512    0.24992    0.75001   1.00
C2       -0.10512   0.24992    0.75001   1.00
C3       0.08405    0.27527    0.77431   1.00
C3       -0.08363   0.23066    0.77920   1.00
C3       0.08363    0.22450    0.72599   1.00
C3       -0.08405   0.26904    0.72056   1.00
C5       0.02228    0.30432    0.80166   1.00
H1       -0.02691   0.21555    0.80223   1.00
H1       0.10021    0.29496    0.79295   1.00
H1       -0.09901   0.21561    0.80231   1.00
H1       0.09901    0.20456    0.70693   1.00
H1       -0.10021   0.28395    0.69791   1.00
C5       -0.02228   0.29107    0.68729   1.00
H1       0.02691    0.20453    0.70702   1.00
H2       -0.04256   0.31273    0.67426   1.00
H2       0.00269    0.30810    0.69898   1.00
H2       0.04256    0.32838    0.80940   1.00
H2       -0.00269   0.31822    0.78639   1.00
N1       -0.00857   0.26412    0.65713   1.00
C6       -0.03073   0.24235    0.63358   1.00
C6       0.02846    0.25742    0.64714   1.00
C6       -0.00759   0.22107    0.60857   1.00
C6       0.03005    0.23066    0.61718   1.00
H3       -0.06197   0.24160    0.63462   1.00
H3       0.05300    0.27090    0.66096   1.00
H3       -0.01713   0.20085    0.58649   1.00
H3       0.05575    0.21938    0.60320   1.00
N1       0.00857    0.28498    0.83718   1.00
C6       -0.02846   0.28073    0.84845   1.00
C6       0.03073    0.26916    0.86509   1.00
C6       -0.03005   0.26153    0.88372   1.00
C6       0.00759    0.25416    0.89430   1.00
H3       -0.05300   0.29070    0.83190   1.00
H3       0.06197    0.26819    0.86424   1.00
H3       -0.05575   0.25374    0.89991   1.00
H3       0.01713    0.23952    0.92042   1.00
C4       0.47915    0.25002    0.74980   1.00
C4       0.52085    0.24998    0.75020   1.00
C3a      0.45746    0.27568    0.72515   1.00
C3       0.54232    0.23056    0.72092   1.00
C3       0.45768    0.22443    0.77387   1.00
C3a      0.54254    0.26932    0.78006   1.00
C2       0.39488    0.24992    0.74999   1.00
C2       0.60512    0.24992    0.74999   1.00
C3       0.41595    0.27527    0.72569   1.00
C3       0.58363    0.23066    0.72080   1.00
C3       0.41637    0.22450    0.77401   1.00
C3       0.58405    0.26904    0.77944   1.00
C5       0.47772    0.30432    0.69834   1.00
H1       0.52691    0.21555    0.69777   1.00
H1       0.39979    0.29496    0.70705   1.00
H1       0.59901    0.21561    0.69769   1.00
H1       0.40099    0.20456    0.79307   1.00
H1       0.60021    0.28395    0.80209   1.00
C5       0.52228    0.29107    0.81271   1.00
H1       0.47309    0.20453    0.79298   1.00
H2       0.54256    0.31273    0.82574   1.00
H2       0.49731    0.30810    0.80102   1.00
H2       0.45744    0.32838    0.69060   1.00
H2       0.50269    0.31822    0.71361   1.00
N1       0.50857    0.26412    0.84287   1.00
C6       0.53073    0.24235    0.86642   1.00
C6       0.47154    0.25742    0.85286   1.00
C6       0.50759    0.22107    0.89143   1.00
C6       0.46995    0.23066    0.88282   1.00
H3       0.56197    0.24160    0.86538   1.00
H3       0.44700    0.27090    0.83904   1.00
H3       0.51713    0.20085    0.91351   1.00
H3       0.44425    0.21938    0.89680   1.00
N1       0.49143    0.28498    0.66282   1.00
C6       0.52846    0.28073    0.65155   1.00
C6       0.46927    0.26916    0.63491   1.00
C6       0.53005    0.26153    0.61628   1.00
C6       0.49241    0.25416    0.60570   1.00
H3       0.55300    0.29070    0.66810   1.00
H3       0.43803    0.26819    0.63576   1.00
H3       0.55575    0.25374    0.60009   1.00
H3       0.48287    0.23952    0.57958   1.00
C4       0.25020    0.02085    0.75002   1.00
C4       0.24980    -0.02085   0.74998   1.00
C3a      0.27485    0.04254    0.77568   1.00
C3       0.27908    -0.04232   0.73056   1.00
C3       0.22613    0.04232    0.72443   1.00
C3a      0.21994    -0.04254   0.76932   1.00
C2       0.25001    0.10512    0.74992   1.00
C2       0.25001    -0.10512   0.74992   1.00
C3       0.27431    0.08405    0.77527   1.00
C3       0.27920    -0.08363   0.73066   1.00
C3       0.22599    0.08363    0.72450   1.00
C3       0.22056    -0.08405   0.76904   1.00
C5       0.30166    0.02228    0.80432   1.00
H1       0.30223    -0.02691   0.71555   1.00
H1       0.29295    0.10021    0.79496   1.00
H1       0.30231    -0.09901   0.71561   1.00
H1       0.20693    0.09901    0.70456   1.00
H1       0.19791    -0.10021   0.78395   1.00
C5       0.18729    -0.02228   0.79107   1.00
H1       0.20702    0.02691    0.70453   1.00
H2       0.17426    -0.04256   0.81273   1.00
H2       0.19898    0.00269    0.80810   1.00
H2       0.30940    0.04256    0.82838   1.00
H2       0.28639    -0.00269   0.81822   1.00
N1       0.15713    -0.00857   0.76412   1.00
C6       0.13358    -0.03073   0.74235   1.00
C6       0.14714    0.02846    0.75742   1.00
C6       0.10857    -0.00759   0.72107   1.00
C6       0.11718    0.03005    0.73066   1.00
H3       0.13462    -0.06197   0.74160   1.00
H3       0.16096    0.05300    0.77090   1.00
H3       0.08649    -0.01713   0.70085   1.00
H3       0.10320    0.05575    0.71938   1.00
N1       0.33718    0.00857    0.78498   1.00
C6       0.34845    -0.02846   0.78073   1.00
C6       0.36509    0.03073    0.76916   1.00
C6       0.38372    -0.03005   0.76153   1.00
C6       0.39430    0.00759    0.75416   1.00
H3       0.33190    -0.05300   0.79070   1.00
H3       0.36424    0.06197    0.76819   1.00
H3       0.39991    -0.05575   0.75374   1.00
H3       0.42042    0.01713    0.73952   1.00
C4       0.25002    0.25020    0.52085   1.00
C4       0.24998    0.24980    0.47915   1.00
C3a      0.27568    0.27485    0.54254   1.00
C3       0.23056    0.27908    0.45768   1.00
C3       0.22443    0.22613    0.54232   1.00
C3a      0.26932    0.21994    0.45746   1.00
C2       0.24992    0.25001    0.60512   1.00
C2       0.24992    0.25001    0.39488   1.00
C3       0.27527    0.27431    0.58405   1.00
C3       0.23066    0.27920    0.41637   1.00
C3       0.22450    0.22599    0.58363   1.00
C3       0.26904    0.22056    0.41595   1.00
C5       0.30432    0.30166    0.52228   1.00
H1       0.21555    0.30223    0.47309   1.00
H1       0.29496    0.29295    0.60021   1.00
H1       0.21561    0.30231    0.40099   1.00
H1       0.20456    0.20693    0.59901   1.00
H1       0.28395    0.19791    0.39979   1.00
C5       0.29107    0.18729    0.47772   1.00
H1       0.20453    0.20702    0.52691   1.00
H2       0.31273    0.17426    0.45744   1.00
H2       0.30810    0.19898    0.50269   1.00
H2       0.32838    0.30940    0.54256   1.00
H2       0.31822    0.28639    0.49731   1.00
N1       0.26412    0.15713    0.49143   1.00
C6       0.24235    0.13358    0.46927   1.00
C6       0.25742    0.14714    0.52846   1.00
C6       0.22107    0.10857    0.49241   1.00
C6       0.23066    0.11718    0.53005   1.00
H3       0.24160    0.13462    0.43803   1.00
H3       0.27090    0.16096    0.55300   1.00
H3       0.20085    0.08649    0.48287   1.00
H3       0.21938    0.10320    0.55575   1.00
N1       0.28498    0.33718    0.50857   1.00
C6       0.28073    0.34845    0.47154   1.00
C6       0.26916    0.36509    0.53073   1.00
C6       0.26153    0.38372    0.46995   1.00
C6       0.25416    0.39430    0.50759   1.00
H3       0.29070    0.33190    0.44700   1.00
H3       0.26819    0.36424    0.56197   1.00
H3       0.25374    0.39991    0.44425   1.00
H3       0.23952    0.42042    0.51713   1.00
C4       0.25002    0.74980    0.47915   1.00
C4       0.24998    0.75020    0.52085   1.00
C3a      0.27568    0.72515    0.45746   1.00
C3       0.23056    0.72092    0.54232   1.00
C3       0.22443    0.77387    0.45768   1.00
C3a      0.26932    0.78006    0.54254   1.00
C2       0.24992    0.74999    0.39488   1.00
C2       0.24992    0.74999    0.60512   1.00
C3       0.27527    0.72569    0.41595   1.00
C3       0.23066    0.72080    0.58363   1.00
C3       0.22450    0.77401    0.41637   1.00
C3       0.26904    0.77944    0.58405   1.00
C5       0.30432    0.69834    0.47772   1.00
H1       0.21555    0.69777    0.52691   1.00
H1       0.29496    0.70705    0.39979   1.00
H1       0.21561    0.69769    0.59901   1.00
H1       0.20456    0.79307    0.40099   1.00
H1       0.28395    0.80209    0.60021   1.00
C5       0.29107    0.81271    0.52228   1.00
H1       0.20453    0.79298    0.47309   1.00
H2       0.31273    0.82574    0.54256   1.00
H2       0.30810    0.80102    0.49731   1.00
H2       0.32838    0.69060    0.45744   1.00
H2       0.31822    0.71361    0.50269   1.00
N1       0.26412    0.84287    0.50857   1.00
C6       0.24235    0.86642    0.53073   1.00
C6       0.25742    0.85286    0.47154   1.00
C6       0.22107    0.89143    0.50759   1.00
C6       0.23066    0.88282    0.46995   1.00
H3       0.24160    0.86538    0.56197   1.00
H3       0.27090    0.83904    0.44700   1.00
H3       0.20085    0.91351    0.51713   1.00
H3       0.21938    0.89680    0.44425   1.00
N1       0.28498    0.66282    0.49143   1.00
C6       0.28073    0.65155    0.52846   1.00
C6       0.26916    0.63491    0.46927   1.00
C6       0.26153    0.61628    0.53005   1.00
C6       0.25416    0.60570    0.49241   1.00
H3       0.29070    0.66810    0.55300   1.00
H3       0.26819    0.63576    0.43803   1.00
H3       0.25374    0.60009    0.55575   1.00
H3       0.23952    0.57958    0.48287   1.00
C4       0.24980    0.97915    0.25002   1.00
C4       0.25020    1.02085    0.24998   1.00
C3a      0.22515    0.95746    0.27568   1.00
C3       0.22092    1.04232    0.23056   1.00
C3       0.27387    0.95768    0.22443   1.00
C3a      0.28006    1.04254    0.26932   1.00
C2       0.24999    0.89488    0.24992   1.00
C2       0.24999    1.10512    0.24992   1.00
C3       0.22569    0.91595    0.27527   1.00
C3       0.22080    1.08363    0.23066   1.00
C3       0.27401    0.91637    0.22450   1.00
C3       0.27944    1.08405    0.26904   1.00
C5       0.19834    0.97772    0.30432   1.00
H1       0.19777    1.02691    0.21555   1.00
H1       0.20705    0.89979    0.29496   1.00
H1       0.19769    1.09901    0.21561   1.00
H1       0.29307    0.90099    0.20456   1.00
H1       0.30209    1.10021    0.28395   1.00
C5       0.31271    1.02228    0.29107   1.00
H1       0.29298    0.97309    0.20453   1.00
H2       0.32574    1.04256    0.31273   1.00
H2       0.30102    0.99731    0.30810   1.00
H2       0.19060    0.95744    0.32838   1.00
H2       0.21361    1.00269    0.31822   1.00
N1       0.34287    1.00857    0.26412   1.00
C6       0.36642    1.03073    0.24235   1.00
C6       0.35286    0.97154    0.25742   1.00
C6       0.39143    1.00759    0.22107   1.00
C6       0.38282    0.96995    0.23066   1.00
H3       0.36538    1.06197    0.24160   1.00
H3       0.33904    0.94700    0.27090   1.00
H3       0.41351    1.01713    0.20085   1.00
H3       0.39680    0.94425    0.21938   1.00
N1       0.16282    0.99143    0.28498   1.00
C6       0.15155    1.02846    0.28073   1.00
C6       0.13491    0.96927    0.26916   1.00
C6       0.11628    1.03005    0.26153   1.00
C6       0.10570    0.99241    0.25416   1.00
H3       0.16810    1.05300    0.29070   1.00
H3       0.13576    0.93803    0.26819   1.00
H3       0.10009    1.05575    0.25374   1.00
H3       0.07958    0.98287    0.23952   1.00
C4       0.02085    0.75002    0.25020   1.00
C4       -0.02085   0.74998    0.24980   1.00
C3a      0.04254    0.77568    0.27485   1.00
C3       -0.04232   0.73056    0.27908   1.00
C3       0.04232    0.72443    0.22613   1.00
C3a      -0.04254   0.76932    0.21994   1.00
C2       0.10512    0.74992    0.25001   1.00
C2       -0.10512   0.74992    0.25001   1.00
C3       0.08405    0.77527    0.27431   1.00
C3       -0.08363   0.73066    0.27920   1.00
C3       0.08363    0.72450    0.22599   1.00
C3       -0.08405   0.76904    0.22056   1.00
C5       0.02228    0.80432    0.30166   1.00
H1       -0.02691   0.71555    0.30223   1.00
H1       0.10021    0.79496    0.29295   1.00
H1       -0.09901   0.71561    0.30231   1.00
H1       0.09901    0.70456    0.20693   1.00
H1       -0.10021   0.78395    0.19791   1.00
C5       -0.02228   0.79107    0.18729   1.00
H1       0.02691    0.70453    0.20702   1.00
H2       -0.04256   0.81273    0.17426   1.00
H2       0.00269    0.80810    0.19898   1.00
H2       0.04256    0.82838    0.30940   1.00
H2       -0.00269   0.81822    0.28639   1.00
N1       -0.00857   0.76412    0.15713   1.00
C6       -0.03073   0.74235    0.13358   1.00
C6       0.02846    0.75742    0.14714   1.00
C6       -0.00759   0.72107    0.10857   1.00
C6       0.03005    0.73066    0.11718   1.00
H3       -0.06197   0.74160    0.13462   1.00
H3       0.05300    0.77090    0.16096   1.00
H3       -0.01713   0.70085    0.08649   1.00
H3       0.05575    0.71938    0.10320   1.00
N1       0.00857    0.78498    0.33718   1.00
C6       -0.02846   0.78073    0.34845   1.00
C6       0.03073    0.76916    0.36509   1.00
C6       -0.03005   0.76153    0.38372   1.00
C6       0.00759    0.75416    0.39430   1.00
H3       -0.05300   0.79070    0.33190   1.00
H3       0.06197    0.76819    0.36424   1.00
H3       -0.05575   0.75374    0.39991   1.00
H3       0.01713    0.73952    0.42042   1.00
C4       0.47915    0.75002    0.24980   1.00
C4       0.52085    0.74998    0.25020   1.00
C3a      0.45746    0.77568    0.22515   1.00
C3       0.54232    0.73056    0.22092   1.00
C3       0.45768    0.72443    0.27387   1.00
C3a      0.54254    0.76932    0.28006   1.00
C2       0.39488    0.74992    0.24999   1.00
C2       0.60512    0.74992    0.24999   1.00
C3       0.41595    0.77527    0.22569   1.00
C3       0.58363    0.73066    0.22080   1.00
C3       0.41637    0.72450    0.27401   1.00
C3       0.58405    0.76904    0.27944   1.00
C5       0.47772    0.80432    0.19834   1.00
H1       0.52691    0.71555    0.19777   1.00
H1       0.39979    0.79496    0.20705   1.00
H1       0.59901    0.71561    0.19769   1.00
H1       0.40099    0.70456    0.29307   1.00
H1       0.60021    0.78395    0.30209   1.00
C5       0.52228    0.79107    0.31271   1.00
H1       0.47309    0.70453    0.29298   1.00
H2       0.54256    0.81273    0.32574   1.00
H2       0.49731    0.80810    0.30102   1.00
H2       0.45744    0.82838    0.19060   1.00
H2       0.50269    0.81822    0.21361   1.00
N1       0.50857    0.76412    0.34287   1.00
C6       0.53073    0.74235    0.36642   1.00
C6       0.47154    0.75742    0.35286   1.00
C6       0.50759    0.72107    0.39143   1.00
C6       0.46995    0.73066    0.38282   1.00
H3       0.56197    0.74160    0.36538   1.00
H3       0.44700    0.77090    0.33904   1.00
H3       0.51713    0.70085    0.41351   1.00
H3       0.44425    0.71938    0.39680   1.00
N1       0.49143    0.78498    0.16282   1.00
C6       0.52846    0.78073    0.15155   1.00
C6       0.46927    0.76916    0.13491   1.00
C6       0.53005    0.76153    0.11628   1.00
C6       0.49241    0.75416    0.10570   1.00
H3       0.55300    0.79070    0.16810   1.00
H3       0.43803    0.76819    0.13576   1.00
H3       0.55575    0.75374    0.10009   1.00
H3       0.48287    0.73952    0.07958   1.00
C4       0.25020    0.52085    0.25002   1.00
C4       0.24980    0.47915    0.24998   1.00
C3a      0.27485    0.54254    0.27568   1.00
C3       0.27908    0.45768    0.23056   1.00
C3       0.22613    0.54232    0.22443   1.00
C3a      0.21994    0.45746    0.26932   1.00
C2       0.25001    0.60512    0.24992   1.00
C2       0.25001    0.39488    0.24992   1.00
C3       0.27431    0.58405    0.27527   1.00
C3       0.27920    0.41637    0.23066   1.00
C3       0.22599    0.58363    0.22450   1.00
C3       0.22056    0.41595    0.26904   1.00
C5       0.30166    0.52228    0.30432   1.00
H1       0.30223    0.47309    0.21555   1.00
H1       0.29295    0.60021    0.29496   1.00
H1       0.30231    0.40099    0.21561   1.00
H1       0.20693    0.59901    0.20456   1.00
H1       0.19791    0.39979    0.28395   1.00
C5       0.18729    0.47772    0.29107   1.00
H1       0.20702    0.52691    0.20453   1.00
H2       0.17426    0.45744    0.31273   1.00
H2       0.19898    0.50269    0.30810   1.00
H2       0.30940    0.54256    0.32838   1.00
H2       0.28639    0.49731    0.31822   1.00
N1       0.15713    0.49143    0.26412   1.00
C6       0.13358    0.46927    0.24235   1.00
C6       0.14714    0.52846    0.25742   1.00
C6       0.10857    0.49241    0.22107   1.00
C6       0.11718    0.53005    0.23066   1.00
H3       0.13462    0.43803    0.24160   1.00
H3       0.16096    0.55300    0.27090   1.00
H3       0.08649    0.48287    0.20085   1.00
H3       0.10320    0.55575    0.21938   1.00
N1       0.33718    0.50857    0.28498   1.00
C6       0.34845    0.47154    0.28073   1.00
C6       0.36509    0.53073    0.26916   1.00
C6       0.38372    0.46995    0.26153   1.00
C6       0.39430    0.50759    0.25416   1.00
H3       0.33190    0.44700    0.29070   1.00
H3       0.36424    0.56197    0.26819   1.00
H3       0.39991    0.44425    0.25374   1.00
H3       0.42042    0.51713    0.23952   1.00
C4       0.25002    0.75020    0.02085   1.00
C4       0.24998    0.74980    -0.02085   1.00
C3a      0.27568    0.77485    0.04254   1.00
C3       0.23056    0.77908    -0.04232   1.00
C3       0.22443    0.72613    0.04232   1.00
C3a      0.26932    0.71994    -0.04254   1.00
C2       0.24992    0.75001    0.10512   1.00
C2       0.24992    0.75001    -0.10512   1.00
C3       0.27527    0.77431    0.08405   1.00
C3       0.23066    0.77920    -0.08363   1.00
C3       0.22450    0.72599    0.08363   1.00
C3       0.26904    0.72056    -0.08405   1.00
C5       0.30432    0.80166    0.02228   1.00
H1       0.21555    0.80223    -0.02691   1.00
H1       0.29496    0.79295    0.10021   1.00
H1       0.21561    0.80231    -0.09901   1.00
H1       0.20456    0.70693    0.09901   1.00
H1       0.28395    0.69791    -0.10021   1.00
C5       0.29107    0.68729    -0.02228   1.00
H1       0.20453    0.70702    0.02691   1.00
H2       0.31273    0.67426    -0.04256   1.00
H2       0.30810    0.69898    0.00269   1.00
H2       0.32838    0.80940    0.04256   1.00
H2       0.31822    0.78639    -0.00269   1.00
N1       0.26412    0.65713    -0.00857   1.00
C6       0.24235    0.63358    -0.03073   1.00
C6       0.25742    0.64714    0.02846   1.00
C6       0.22107    0.60857    -0.00759   1.00
C6       0.23066    0.61718    0.03005   1.00
H3       0.24160    0.63462    -0.06197   1.00
H3       0.27090    0.66096    0.05300   1.00
H3       0.20085    0.58649    -0.01713   1.00
H3       0.21938    0.60320    0.05575   1.00
N1       0.28498    0.83718    0.00857   1.00
C6       0.28073    0.84845    -0.02846   1.00
C6       0.26916    0.86509    0.03073   1.00
C6       0.26153    0.88372    -0.03005   1.00
C6       0.25416    0.89430    0.00759   1.00
H3       0.29070    0.83190    -0.05300   1.00
H3       0.26819    0.86424    0.06197   1.00
H3       0.25374    0.89991    -0.05575   1.00
H3       0.23952    0.92042    0.01713   1.00
C4       0.75002    0.24980    0.47915   1.00
C4       0.74998    0.25020    0.52085   1.00
C3a      0.77568    0.22515    0.45746   1.00
C3       0.73056    0.22092    0.54232   1.00
C3       0.72443    0.27387    0.45768   1.00
C3a      0.76932    0.28006    0.54254   1.00
C2       0.74992    0.24999    0.39488   1.00
C2       0.74992    0.24999    0.60512   1.00
C3       0.77527    0.22569    0.41595   1.00
C3       0.73066    0.22080    0.58363   1.00
C3       0.72450    0.27401    0.41637   1.00
C3       0.76904    0.27944    0.58405   1.00
C5       0.80432    0.19834    0.47772   1.00
H1       0.71555    0.19777    0.52691   1.00
H1       0.79496    0.20705    0.39979   1.00
H1       0.71561    0.19769    0.59901   1.00
H1       0.70456    0.29307    0.40099   1.00
H1       0.78395    0.30209    0.60021   1.00
C5       0.79107    0.31271    0.52228   1.00
H1       0.70453    0.29298    0.47309   1.00
H2       0.81273    0.32574    0.54256   1.00
H2       0.80810    0.30102    0.49731   1.00
H2       0.82838    0.19060    0.45744   1.00
H2       0.81822    0.21361    0.50269   1.00
N1       0.76412    0.34287    0.50857   1.00
C6       0.74235    0.36642    0.53073   1.00
C6       0.75742    0.35286    0.47154   1.00
C6       0.72107    0.39143    0.50759   1.00
C6       0.73066    0.38282    0.46995   1.00
H3       0.74160    0.36538    0.56197   1.00
H3       0.77090    0.33904    0.44700   1.00
H3       0.70085    0.41351    0.51713   1.00
H3       0.71938    0.39680    0.44425   1.00
N1       0.78498    0.16282    0.49143   1.00
C6       0.78073    0.15155    0.52846   1.00
C6       0.76916    0.13491    0.46927   1.00
C6       0.76153    0.11628    0.53005   1.00
C6       0.75416    0.10570    0.49241   1.00
H3       0.79070    0.16810    0.55300   1.00
H3       0.76819    0.13576    0.43803   1.00
H3       0.75374    0.10009    0.55575   1.00
H3       0.73952    0.07958    0.48287   1.00
C4       0.74980    0.47915    0.25002   1.00
C4       0.75020    0.52085    0.24998   1.00
C3a      0.72515    0.45746    0.27568   1.00
C3       0.72092    0.54232    0.23056   1.00
C3       0.77387    0.45768    0.22443   1.00
C3a      0.78006    0.54254    0.26932   1.00
C2       0.74999    0.39488    0.24992   1.00
C2       0.74999    0.60512    0.24992   1.00
C3       0.72569    0.41595    0.27527   1.00
C3       0.72080    0.58363    0.23066   1.00
C3       0.77401    0.41637    0.22450   1.00
C3       0.77944    0.58405    0.26904   1.00
C5       0.69834    0.47772    0.30432   1.00
H1       0.69777    0.52691    0.21555   1.00
H1       0.70705    0.39979    0.29496   1.00
H1       0.69769    0.59901    0.21561   1.00
H1       0.79307    0.40099    0.20456   1.00
H1       0.80209    0.60021    0.28395   1.00
C5       0.81271    0.52228    0.29107   1.00
H1       0.79298    0.47309    0.20453   1.00
H2       0.82574    0.54256    0.31273   1.00
H2       0.80102    0.49731    0.30810   1.00
H2       0.69060    0.45744    0.32838   1.00
H2       0.71361    0.50269    0.31822   1.00
N1       0.84287    0.50857    0.26412   1.00
C6       0.86642    0.53073    0.24235   1.00
C6       0.85286    0.47154    0.25742   1.00
C6       0.89143    0.50759    0.22107   1.00
C6       0.88282    0.46995    0.23066   1.00
H3       0.86538    0.56197    0.24160   1.00
H3       0.83904    0.44700    0.27090   1.00
H3       0.91351    0.51713    0.20085   1.00
H3       0.89680    0.44425    0.21938   1.00
N1       0.66282    0.49143    0.28498   1.00
C6       0.65155    0.52846    0.28073   1.00
C6       0.63491    0.46927    0.26916   1.00
C6       0.61628    0.53005    0.26153   1.00
C6       0.60570    0.49241    0.25416   1.00
H3       0.66810    0.55300    0.29070   1.00
H3       0.63576    0.43803    0.26819   1.00
H3       0.60009    0.55575    0.25374   1.00
H3       0.57958    0.48287    0.23952   1.00
C4       0.52085    0.25002    0.25020   1.00
C4       0.47915    0.24998    0.24980   1.00
C3a      0.54254    0.27568    0.27485   1.00
C3       0.45768    0.23056    0.27908   1.00
C3       0.54232    0.22443    0.22613   1.00
C3a      0.45746    0.26932    0.21994   1.00
C2       0.60512    0.24992    0.25001   1.00
C2       0.39488    0.24992    0.25001   1.00
C3       0.58405    0.27527    0.27431   1.00
C3       0.41637    0.23066    0.27920   1.00
C3       0.58363    0.22450    0.22599   1.00
C3       0.41595    0.26904    0.22056   1.00
C5       0.52228    0.30432    0.30166   1.00
H1       0.47309    0.21555    0.30223   1.00
H1       0.60021    0.29496    0.29295   1.00
H1       0.40099    0.21561    0.30231   1.00
H1       0.59901    0.20456    0.20693   1.00
H1       0.39979    0.28395    0.19791   1.00
C5       0.47772    0.29107    0.18729   1.00
H1       0.52691    0.20453    0.20702   1.00
H2       0.45744    0.31273    0.17426   1.00
H2       0.50269    0.30810    0.19898   1.00
H2       0.54256    0.32838    0.30940   1.00
H2       0.49731    0.31822    0.28639   1.00
N1       0.49143    0.26412    0.15713   1.00
C6       0.46927    0.24235    0.13358   1.00
C6       0.52846    0.25742    0.14714   1.00
C6       0.49241    0.22107    0.10857   1.00
C6       0.53005    0.23066    0.11718   1.00
H3       0.43803    0.24160    0.13462   1.00
H3       0.55300    0.27090    0.16096   1.00
H3       0.48287    0.20085    0.08649   1.00
H3       0.55575    0.21938    0.10320   1.00
N1       0.50857    0.28498    0.33718   1.00
C6       0.47154    0.28073    0.34845   1.00
C6       0.53073    0.26916    0.36509   1.00
C6       0.46995    0.26153    0.38372   1.00
C6       0.50759    0.25416    0.39430   1.00
H3       0.44700    0.29070    0.33190   1.00
H3       0.56197    0.26819    0.36424   1.00
H3       0.44425    0.25374    0.39991   1.00
H3       0.51713    0.23952    0.42042   1.00
C4       0.97915    0.25002    0.24980   1.00
C4       1.02085    0.24998    0.25020   1.00
C3a      0.95746    0.27568    0.22515   1.00
C3       1.04232    0.23056    0.22092   1.00
C3       0.95768    0.22443    0.27387   1.00
C3a      1.04254    0.26932    0.28006   1.00
C2       0.89488    0.24992    0.24999   1.00
C2       1.10512    0.24992    0.24999   1.00
C3       0.91595    0.27527    0.22569   1.00
C3       1.08363    0.23066    0.22080   1.00
C3       0.91637    0.22450    0.27401   1.00
C3       1.08405    0.26904    0.27944   1.00
C5       0.97772    0.30432    0.19834   1.00
H1       1.02691    0.21555    0.19777   1.00
H1       0.89979    0.29496    0.20705   1.00
H1       1.09901    0.21561    0.19769   1.00
H1       0.90099    0.20456    0.29307   1.00
H1       1.10021    0.28395    0.30209   1.00
C5       1.02228    0.29107    0.31271   1.00
H1       0.97309    0.20453    0.29298   1.00
H2       1.04256    0.31273    0.32574   1.00
H2       0.99731    0.30810    0.30102   1.00
H2       0.95744    0.32838    0.19060   1.00
H2       1.00269    0.31822    0.21361   1.00
N1       1.00857    0.26412    0.34287   1.00
C6       1.03073    0.24235    0.36642   1.00
C6       0.97154    0.25742    0.35286   1.00
C6       1.00759    0.22107    0.39143   1.00
C6       0.96995    0.23066    0.38282   1.00
H3       1.06197    0.24160    0.36538   1.00
H3       0.94700    0.27090    0.33904   1.00
H3       1.01713    0.20085    0.41351   1.00
H3       0.94425    0.21938    0.39680   1.00
N1       0.99143    0.28498    0.16282   1.00
C6       1.02846    0.28073    0.15155   1.00
C6       0.96927    0.26916    0.13491   1.00
C6       1.03005    0.26153    0.11628   1.00
C6       0.99241    0.25416    0.10570   1.00
H3       1.05300    0.29070    0.16810   1.00
H3       0.93803    0.26819    0.13576   1.00
H3       1.05575    0.25374    0.10009   1.00
H3       0.98287    0.23952    0.07958   1.00
C4       0.75020    0.02085    0.25002   1.00
C4       0.74980    -0.02085   0.24998   1.00
C3a      0.77485    0.04254    0.27568   1.00
C3       0.77908    -0.04232   0.23056   1.00
C3       0.72613    0.04232    0.22443   1.00
C3a      0.71994    -0.04254   0.26932   1.00
C2       0.75001    0.10512    0.24992   1.00
C2       0.75001    -0.10512   0.24992   1.00
C3       0.77431    0.08405    0.27527   1.00
C3       0.77920    -0.08363   0.23066   1.00
C3       0.72599    0.08363    0.22450   1.00
C3       0.72056    -0.08405   0.26904   1.00
C5       0.80166    0.02228    0.30432   1.00
H1       0.80223    -0.02691   0.21555   1.00
H1       0.79295    0.10021    0.29496   1.00
H1       0.80231    -0.09901   0.21561   1.00
H1       0.70693    0.09901    0.20456   1.00
H1       0.69791    -0.10021   0.28395   1.00
C5       0.68729    -0.02228   0.29107   1.00
H1       0.70702    0.02691    0.20453   1.00
H2       0.67426    -0.04256   0.31273   1.00
H2       0.69898    0.00269    0.30810   1.00
H2       0.80940    0.04256    0.32838   1.00
H2       0.78639    -0.00269   0.31822   1.00
N1       0.65713    -0.00857   0.26412   1.00
C6       0.63358    -0.03073   0.24235   1.00
C6       0.64714    0.02846    0.25742   1.00
C6       0.60857    -0.00759   0.22107   1.00
C6       0.61718    0.03005    0.23066   1.00
H3       0.63462    -0.06197   0.24160   1.00
H3       0.66096    0.05300    0.27090   1.00
H3       0.58649    -0.01713   0.20085   1.00
H3       0.60320    0.05575    0.21938   1.00
N1       0.83718    0.00857    0.28498   1.00
C6       0.84845    -0.02846   0.28073   1.00
C6       0.86509    0.03073    0.26916   1.00
C6       0.88372    -0.03005   0.26153   1.00
C6       0.89430    0.00759    0.25416   1.00
H3       0.83190    -0.05300   0.29070   1.00
H3       0.86424    0.06197    0.26819   1.00
H3       0.89991    -0.05575   0.25374   1.00
H3       0.92042    0.01713    0.23952   1.00
C4       0.75002    0.25020    0.02085   1.00
C4       0.74998    0.24980    -0.02085   1.00
C3a      0.77568    0.27485    0.04254   1.00
C3       0.73056    0.27908    -0.04232   1.00
C3       0.72443    0.22613    0.04232   1.00
C3a      0.76932    0.21994    -0.04254   1.00
C2       0.74992    0.25001    0.10512   1.00
C2       0.74992    0.25001    -0.10512   1.00
C3       0.77527    0.27431    0.08405   1.00
C3       0.73066    0.27920    -0.08363   1.00
C3       0.72450    0.22599    0.08363   1.00
C3       0.76904    0.22056    -0.08405   1.00
C5       0.80432    0.30166    0.02228   1.00
H1       0.71555    0.30223    -0.02691   1.00
H1       0.79496    0.29295    0.10021   1.00
H1       0.71561    0.30231    -0.09901   1.00
H1       0.70456    0.20693    0.09901   1.00
H1       0.78395    0.19791    -0.10021   1.00
C5       0.79107    0.18729    -0.02228   1.00
H1       0.70453    0.20702    0.02691   1.00
H2       0.81273    0.17426    -0.04256   1.00
H2       0.80810    0.19898    0.00269   1.00
H2       0.82838    0.30940    0.04256   1.00
H2       0.81822    0.28639    -0.00269   1.00
N1       0.76412    0.15713    -0.00857   1.00
C6       0.74235    0.13358    -0.03073   1.00
C6       0.75742    0.14714    0.02846   1.00
C6       0.72107    0.10857    -0.00759   1.00
C6       0.73066    0.11718    0.03005   1.00
H3       0.74160    0.13462    -0.06197   1.00
H3       0.77090    0.16096    0.05300   1.00
H3       0.70085    0.08649    -0.01713   1.00
H3       0.71938    0.10320    0.05575   1.00
N1       0.78498    0.33718    0.00857   1.00
C6       0.78073    0.34845    -0.02846   1.00
C6       0.76916    0.36509    0.03073   1.00
C6       0.76153    0.38372    -0.03005   1.00
C6       0.75416    0.39430    0.00759   1.00
H3       0.79070    0.33190    -0.05300   1.00
H3       0.76819    0.36424    0.06197   1.00
H3       0.75374    0.39991    -0.05575   1.00
H3       0.73952    0.42042    0.01713   1.00
C4       0.91502    0.91480    1.14415   1.00
C4       0.91498    0.91520    1.18585   1.00
C3a      0.94068    0.89015    1.12246   1.00
C3       0.89556    0.88592    1.20732   1.00
C3       0.88943    0.93887    1.12268   1.00
C3a      0.93432    0.94506    1.20754   1.00
C2       0.91492    0.91499    1.05988   1.00
C2       0.91492    0.91499    1.27012   1.00
C3       0.94027    0.89069    1.08095   1.00
C3       0.89566    0.88580    1.24863   1.00
C3       0.88950    0.93901    1.08137   1.00
C3       0.93404    0.94444    1.24905   1.00
C5       0.96932    0.86334    1.14272   1.00
H1       0.88055    0.86277    1.19191   1.00
H1       0.95996    0.87205    1.06479   1.00
H1       0.88061    0.86269    1.26401   1.00
H1       0.86956    0.95807    1.06599   1.00
H1       0.94895    0.96709    1.26521   1.00
C5       0.95607    0.97771    1.18728   1.00
H1       0.86953    0.95798    1.13809   1.00
H2       0.97773    0.99074    1.20756   1.00
H2       0.97310    0.96602    1.16231   1.00
H2       0.99338    0.85560    1.12244   1.00
H2       0.98322    0.87861    1.16769   1.00
N1       0.92912    1.00787    1.17357   1.00
C6       0.90735    1.03142    1.19573   1.00
C6       0.92242    1.01786    1.13654   1.00
C6       0.88607    1.05643    1.17259   1.00
C6       0.89566    1.04782    1.13495   1.00
H3       0.90660    1.03038    1.22697   1.00
H3       0.93590    1.00404    1.11200   1.00
H3       0.86585    1.07851    1.18213   1.00
H3       0.88438    1.06180    1.10925   1.00
N1       0.94998    0.82782    1.15643   1.00
C6       0.94573    0.81655    1.19346   1.00
C6       0.93416    0.79991    1.13427   1.00
C6       0.92653    0.78128    1.19505   1.00
C6       0.91916    0.77070    1.15741   1.00
H3       0.95570    0.83310    1.21800   1.00
H3       0.93319    0.80076    1.10303   1.00
H3       0.91874    0.76509    1.22075   1.00
H3       0.90452    0.74458    1.14787   1.00
C4       0.91480    1.14415    0.91502   1.00
C4       0.91520    1.18585    0.91498   1.00
C3a      0.89015    1.12246    0.94068   1.00
C3       0.88592    1.20732    0.89556   1.00
C3       0.93887    1.12268    0.88943   1.00
C3a      0.94506    1.20754    0.93432   1.00
C2       0.91499    1.05988    0.91492   1.00
C2       0.91499    1.27012    0.91492   1.00
C3       0.89069    1.08095    0.94027   1.00
C3       0.88580    1.24863    0.89566   1.00
C3       0.93901    1.08137    0.88950   1.00
C3       0.94444    1.24905    0.93404   1.00
C5       0.86334    1.14272    0.96932   1.00
H1       0.86277    1.19191    0.88055   1.00
H1       0.87205    1.06479    0.95996   1.00
H1       0.86269    1.26401    0.88061   1.00
H1       0.95807    1.06599    0.86956   1.00
H1       0.96709    1.26521    0.94895   1.00
C5       0.97771    1.18728    0.95607   1.00
H1       0.95798    1.13809    0.86953   1.00
H2       0.99074    1.20756    0.97773   1.00
H2       0.96602    1.16231    0.97310   1.00
H2       0.85560    1.12244    0.99338   1.00
H2       0.87861    1.16769    0.98322   1.00
N1       1.00787    1.17357    0.92912   1.00
C6       1.03142    1.19573    0.90735   1.00
C6       1.01786    1.13654    0.92242   1.00
C6       1.05643    1.17259    0.88607   1.00
C6       1.04782    1.13495    0.89566   1.00
H3       1.03038    1.22697    0.90660   1.00
H3       1.00404    1.11200    0.93590   1.00
H3       1.07851    1.18213    0.86585   1.00
H3       1.06180    1.10925    0.88438   1.00
N1       0.82782    1.15643    0.94998   1.00
C6       0.81655    1.19346    0.94573   1.00
C6       0.79991    1.13427    0.93416   1.00
C6       0.78128    1.19505    0.92653   1.00
C6       0.77070    1.15741    0.91916   1.00
H3       0.83310    1.21800    0.95570   1.00
H3       0.80076    1.10303    0.93319   1.00
H3       0.76509    1.22075    0.91874   1.00
H3       0.74458    1.14787    0.90452   1.00
C4       0.68585    0.91502    0.91520   1.00
C4       0.64415    0.91498    0.91480   1.00
C3a      0.70754    0.94068    0.93985   1.00
C3       0.62268    0.89556    0.94408   1.00
C3       0.70732    0.88943    0.89113   1.00
C3a      0.62246    0.93432    0.88494   1.00
C2       0.77012    0.91492    0.91501   1.00
C2       0.55988    0.91492    0.91501   1.00
C3       0.74905    0.94027    0.93931   1.00
C3       0.58137    0.89566    0.94420   1.00
C3       0.74863    0.88950    0.89099   1.00
C3       0.58095    0.93404    0.88556   1.00
C5       0.68728    0.96932    0.96666   1.00
H1       0.63809    0.88055    0.96723   1.00
H1       0.76521    0.95996    0.95795   1.00
H1       0.56599    0.88061    0.96731   1.00
H1       0.76401    0.86956    0.87193   1.00
H1       0.56479    0.94895    0.86291   1.00
C5       0.64272    0.95607    0.85229   1.00
H1       0.69191    0.86953    0.87202   1.00
H2       0.62244    0.97773    0.83926   1.00
H2       0.66769    0.97310    0.86398   1.00
H2       0.70756    0.99338    0.97440   1.00
H2       0.66231    0.98322    0.95139   1.00
N1       0.65643    0.92912    0.82213   1.00
C6       0.63427    0.90735    0.79858   1.00
C6       0.69346    0.92242    0.81214   1.00
C6       0.65741    0.88607    0.77357   1.00
C6       0.69505    0.89566    0.78218   1.00
H3       0.60303    0.90660    0.79962   1.00
H3       0.71800    0.93590    0.82596   1.00
H3       0.64787    0.86585    0.75149   1.00
H3       0.72075    0.88438    0.76820   1.00
N1       0.67357    0.94998    1.00218   1.00
C6       0.63654    0.94573    1.01345   1.00
C6       0.69573    0.93416    1.03009   1.00
C6       0.63495    0.92653    1.04872   1.00
C6       0.67259    0.91916    1.05930   1.00
H3       0.61200    0.95570    0.99690   1.00
H3       0.72697    0.93319    1.02924   1.00
H3       0.60925    0.91874    1.06491   1.00
H3       0.68213    0.90452    1.08542   1.00
C4       1.14415    0.91502    0.91480   1.00
C4       1.18585    0.91498    0.91520   1.00
C3a      1.12246    0.94068    0.89015   1.00
C3       1.20732    0.89556    0.88592   1.00
C3       1.12268    0.88943    0.93887   1.00
C3a      1.20754    0.93432    0.94506   1.00
C2       1.05988    0.91492    0.91499   1.00
C2       1.27012    0.91492    0.91499   1.00
C3       1.08095    0.94027    0.89069   1.00
C3       1.24863    0.89566    0.88580   1.00
C3       1.08137    0.88950    0.93901   1.00
C3       1.24905    0.93404    0.94444   1.00
C5       1.14272    0.96932    0.86334   1.00
H1       1.19191    0.88055    0.86277   1.00
H1       1.06479    0.95996    0.87205   1.00
H1       1.26401    0.88061    0.86269   1.00
H1       1.06599    0.86956    0.95807   1.00
H1       1.26521    0.94895    0.96709   1.00
C5       1.18728    0.95607    0.97771   1.00
H1       1.13809    0.86953    0.95798   1.00
H2       1.20756    0.97773    0.99074   1.00
H2       1.16231    0.97310    0.96602   1.00
H2       1.12244    0.99338    0.85560   1.00
H2       1.16769    0.98322    0.87861   1.00
N1       1.17357    0.92912    1.00787   1.00
C6       1.19573    0.90735    1.03142   1.00
C6       1.13654    0.92242    1.01786   1.00
C6       1.17259    0.88607    1.05643   1.00
C6       1.13495    0.89566    1.04782   1.00
H3       1.22697    0.90660    1.03038   1.00
H3       1.11200    0.93590    1.00404   1.00
H3       1.18213    0.86585    1.07851   1.00
H3       1.10925    0.88438    1.06180   1.00
N1       1.15643    0.94998    0.82782   1.00
C6       1.19346    0.94573    0.81655   1.00
C6       1.13427    0.93416    0.79991   1.00
C6       1.19505    0.92653    0.78128   1.00
C6       1.15741    0.91916    0.77070   1.00
H3       1.21800    0.95570    0.83310   1.00
H3       1.10303    0.93319    0.80076   1.00
H3       1.22075    0.91874    0.76509   1.00
H3       1.14787    0.90452    0.74458   1.00
C4       0.91520    0.68585    0.91502   1.00
C4       0.91480    0.64415    0.91498   1.00
C3a      0.93985    0.70754    0.94068   1.00
C3       0.94408    0.62268    0.89556   1.00
C3       0.89113    0.70732    0.88943   1.00
C3a      0.88494    0.62246    0.93432   1.00
C2       0.91501    0.77012    0.91492   1.00
C2       0.91501    0.55988    0.91492   1.00
C3       0.93931    0.74905    0.94027   1.00
C3       0.94420    0.58137    0.89566   1.00
C3       0.89099    0.74863    0.88950   1.00
C3       0.88556    0.58095    0.93404   1.00
C5       0.96666    0.68728    0.96932   1.00
H1       0.96723    0.63809    0.88055   1.00
H1       0.95795    0.76521    0.95996   1.00
H1       0.96731    0.56599    0.88061   1.00
H1       0.87193    0.76401    0.86956   1.00
H1       0.86291    0.56479    0.94895   1.00
C5       0.85229    0.64272    0.95607   1.00
H1       0.87202    0.69191    0.86953   1.00
H2       0.83926    0.62244    0.97773   1.00
H2       0.86398    0.66769    0.97310   1.00
H2       0.97440    0.70756    0.99338   1.00
H2       0.95139    0.66231    0.98322   1.00
N1       0.82213    0.65643    0.92912   1.00
C6       0.79858    0.63427    0.90735   1.00
C6       0.81214    0.69346    0.92242   1.00
C6       0.77357    0.65741    0.88607   1.00
C6       0.78218    0.69505    0.89566   1.00
H3       0.79962    0.60303    0.90660   1.00
H3       0.82596    0.71800    0.93590   1.00
H3       0.75149    0.64787    0.86585   1.00
H3       0.76820    0.72075    0.88438   1.00
N1       1.00218    0.67357    0.94998   1.00
C6       1.01345    0.63654    0.94573   1.00
C6       1.03009    0.69573    0.93416   1.00
C6       1.04872    0.63495    0.92653   1.00
C6       1.05930    0.67259    0.91916   1.00
H3       0.99690    0.61200    0.95570   1.00
H3       1.02924    0.72697    0.93319   1.00
H3       1.06491    0.60925    0.91874   1.00
H3       1.08542    0.68213    0.90452   1.00
C4       0.91502    0.91520    0.68585   1.00
C4       0.91498    0.91480    0.64415   1.00
C3a      0.94068    0.93985    0.70754   1.00
C3       0.89556    0.94408    0.62268   1.00
C3       0.88943    0.89113    0.70732   1.00
C3a      0.93432    0.88494    0.62246   1.00
C2       0.91492    0.91501    0.77012   1.00
C2       0.91492    0.91501    0.55988   1.00
C3       0.94027    0.93931    0.74905   1.00
C3       0.89566    0.94420    0.58137   1.00
C3       0.88950    0.89099    0.74863   1.00
C3       0.93404    0.88556    0.58095   1.00
C5       0.96932    0.96666    0.68728   1.00
H1       0.88055    0.96723    0.63809   1.00
H1       0.95996    0.95795    0.76521   1.00
H1       0.88061    0.96731    0.56599   1.00
H1       0.86956    0.87193    0.76401   1.00
H1       0.94895    0.86291    0.56479   1.00
C5       0.95607    0.85229    0.64272   1.00
H1       0.86953    0.87202    0.69191   1.00
H2       0.97773    0.83926    0.62244   1.00
H2       0.97310    0.86398    0.66769   1.00
H2       0.99338    0.97440    0.70756   1.00
H2       0.98322    0.95139    0.66231   1.00
N1       0.92912    0.82213    0.65643   1.00
C6       0.90735    0.79858    0.63427   1.00
C6       0.92242    0.81214    0.69346   1.00
C6       0.88607    0.77357    0.65741   1.00
C6       0.89566    0.78218    0.69505   1.00
H3       0.90660    0.79962    0.60303   1.00
H3       0.93590    0.82596    0.71800   1.00
H3       0.86585    0.75149    0.64787   1.00
H3       0.88438    0.76820    0.72075   1.00
N1       0.94998    1.00218    0.67357   1.00
C6       0.94573    1.01345    0.63654   1.00
C6       0.93416    1.03009    0.69573   1.00
C6       0.92653    1.04872    0.63495   1.00
C6       0.91916    1.05930    0.67259   1.00
H3       0.95570    0.99690    0.61200   1.00
H3       0.93319    1.02924    0.72697   1.00
H3       0.91874    1.06491    0.60925   1.00
H3       0.90452    1.08542    0.68213   1.00
C4       0.41502    0.41480    1.14415   1.00
C4       0.41498    0.41520    1.18585   1.00
C3a      0.44068    0.39015    1.12246   1.00
C3       0.39556    0.38592    1.20732   1.00
C3       0.38943    0.43887    1.12268   1.00
C3a      0.43432    0.44506    1.20754   1.00
C2       0.41492    0.41499    1.05988   1.00
C2       0.41492    0.41499    1.27012   1.00
C3       0.44027    0.39069    1.08095   1.00
C3       0.39566    0.38580    1.24863   1.00
C3       0.38950    0.43901    1.08137   1.00
C3       0.43404    0.44444    1.24905   1.00
C5       0.46932    0.36334    1.14272   1.00
H1       0.38055    0.36277    1.19191   1.00
H1       0.45996    0.37205    1.06479   1.00
H1       0.38061    0.36269    1.26401   1.00
H1       0.36956    0.45807    1.06599   1.00
H1       0.44895    0.46709    1.26521   1.00
C5       0.45607    0.47771    1.18728   1.00
H1       0.36953    0.45798    1.13809   1.00
H2       0.47773    0.49074    1.20756   1.00
H2       0.47310    0.46602    1.16231   1.00
H2       0.49338    0.35560    1.12244   1.00
H2       0.48322    0.37861    1.16769   1.00
N1       0.42912    0.50787    1.17357   1.00
C6       0.40735    0.53142    1.19573   1.00
C6       0.42242    0.51786    1.13654   1.00
C6       0.38607    0.55643    1.17259   1.00
C6       0.39566    0.54782    1.13495   1.00
H3       0.40660    0.53038    1.22697   1.00
H3       0.43590    0.50404    1.11200   1.00
H3       0.36585    0.57851    1.18213   1.00
H3       0.38438    0.56180    1.10925   1.00
N1       0.44998    0.32782    1.15643   1.00
C6       0.44573    0.31655    1.19346   1.00
C6       0.43416    0.29991    1.13427   1.00
C6       0.42653    0.28128    1.19505   1.00
C6       0.41916    0.27070    1.15741   1.00
H3       0.45570    0.33310    1.21800   1.00
H3       0.43319    0.30076    1.10303   1.00
H3       0.41874    0.26509    1.22075   1.00
H3       0.40452    0.24458    1.14787   1.00
C4       0.41480    0.64415    0.91502   1.00
C4       0.41520    0.68585    0.91498   1.00
C3a      0.39015    0.62246    0.94068   1.00
C3       0.38592    0.70732    0.89556   1.00
C3       0.43887    0.62268    0.88943   1.00
C3a      0.44506    0.70754    0.93432   1.00
C2       0.41499    0.55988    0.91492   1.00
C2       0.41499    0.77012    0.91492   1.00
C3       0.39069    0.58095    0.94027   1.00
C3       0.38580    0.74863    0.89566   1.00
C3       0.43901    0.58137    0.88950   1.00
C3       0.44444    0.74905    0.93404   1.00
C5       0.36334    0.64272    0.96932   1.00
H1       0.36277    0.69191    0.88055   1.00
H1       0.37205    0.56479    0.95996   1.00
H1       0.36269    0.76401    0.88061   1.00
H1       0.45807    0.56599    0.86956   1.00
H1       0.46709    0.76521    0.94895   1.00
C5       0.47771    0.68728    0.95607   1.00
H1       0.45798    0.63809    0.86953   1.00
H2       0.49074    0.70756    0.97773   1.00
H2       0.46602    0.66231    0.97310   1.00
H2       0.35560    0.62244    0.99338   1.00
H2       0.37861    0.66769    0.98322   1.00
N1       0.50787    0.67357    0.92912   1.00
C6       0.53142    0.69573    0.90735   1.00
C6       0.51786    0.63654    0.92242   1.00
C6       0.55643    0.67259    0.88607   1.00
C6       0.54782    0.63495    0.89566   1.00
H3       0.53038    0.72697    0.90660   1.00
H3       0.50404    0.61200    0.93590   1.00
H3       0.57851    0.68213    0.86585   1.00
H3       0.56180    0.60925    0.88438   1.00
N1       0.32782    0.65643    0.94998   1.00
C6       0.31655    0.69346    0.94573   1.00
C6       0.29991    0.63427    0.93416   1.00
C6       0.28128    0.69505    0.92653   1.00
C6       0.27070    0.65741    0.91916   1.00
H3       0.33310    0.71800    0.95570   1.00
H3       0.30076    0.60303    0.93319   1.00
H3       0.26509    0.72075    0.91874   1.00
H3       0.24458    0.64787    0.90452   1.00
C4       0.18585    0.41502    0.91520   1.00
C4       0.14415    0.41498    0.91480   1.00
C3a      0.20754    0.44068    0.93985   1.00
C3       0.12268    0.39556    0.94408   1.00
C3       0.20732    0.38943    0.89113   1.00
C3a      0.12246    0.43432    0.88494   1.00
C2       0.27012    0.41492    0.91501   1.00
C2       0.05988    0.41492    0.91501   1.00
C3       0.24905    0.44027    0.93931   1.00
C3       0.08137    0.39566    0.94420   1.00
C3       0.24863    0.38950    0.89099   1.00
C3       0.08095    0.43404    0.88556   1.00
C5       0.18728    0.46932    0.96666   1.00
H1       0.13809    0.38055    0.96723   1.00
H1       0.26521    0.45996    0.95795   1.00
H1       0.06599    0.38061    0.96731   1.00
H1       0.26401    0.36956    0.87193   1.00
H1       0.06479    0.44895    0.86291   1.00
C5       0.14272    0.45607    0.85229   1.00
H1       0.19191    0.36953    0.87202   1.00
H2       0.12244    0.47773    0.83926   1.00
H2       0.16769    0.47310    0.86398   1.00
H2       0.20756    0.49338    0.97440   1.00
H2       0.16231    0.48322    0.95139   1.00
N1       0.15643    0.42912    0.82213   1.00
C6       0.13427    0.40735    0.79858   1.00
C6       0.19346    0.42242    0.81214   1.00
C6       0.15741    0.38607    0.77357   1.00
C6       0.19505    0.39566    0.78218   1.00
H3       0.10303    0.40660    0.79962   1.00
H3       0.21800    0.43590    0.82596   1.00
H3       0.14787    0.36585    0.75149   1.00
H3       0.22075    0.38438    0.76820   1.00
N1       0.17357    0.44998    1.00218   1.00
C6       0.13654    0.44573    1.01345   1.00
C6       0.19573    0.43416    1.03009   1.00
C6       0.13495    0.42653    1.04872   1.00
C6       0.17259    0.41916    1.05930   1.00
H3       0.11200    0.45570    0.99690   1.00
H3       0.22697    0.43319    1.02924   1.00
H3       0.10925    0.41874    1.06491   1.00
H3       0.18213    0.40452    1.08542   1.00
C4       0.64415    0.41502    0.91480   1.00
C4       0.68585    0.41498    0.91520   1.00
C3a      0.62246    0.44068    0.89015   1.00
C3       0.70732    0.39556    0.88592   1.00
C3       0.62268    0.38943    0.93887   1.00
C3a      0.70754    0.43432    0.94506   1.00
C2       0.55988    0.41492    0.91499   1.00
C2       0.77012    0.41492    0.91499   1.00
C3       0.58095    0.44027    0.89069   1.00
C3       0.74863    0.39566    0.88580   1.00
C3       0.58137    0.38950    0.93901   1.00
C3       0.74905    0.43404    0.94444   1.00
C5       0.64272    0.46932    0.86334   1.00
H1       0.69191    0.38055    0.86277   1.00
H1       0.56479    0.45996    0.87205   1.00
H1       0.76401    0.38061    0.86269   1.00
H1       0.56599    0.36956    0.95807   1.00
H1       0.76521    0.44895    0.96709   1.00
C5       0.68728    0.45607    0.97771   1.00
H1       0.63809    0.36953    0.95798   1.00
H2       0.70756    0.47773    0.99074   1.00
H2       0.66231    0.47310    0.96602   1.00
H2       0.62244    0.49338    0.85560   1.00
H2       0.66769    0.48322    0.87861   1.00
N1       0.67357    0.42912    1.00787   1.00
C6       0.69573    0.40735    1.03142   1.00
C6       0.63654    0.42242    1.01786   1.00
C6       0.67259    0.38607    1.05643   1.00
C6       0.63495    0.39566    1.04782   1.00
H3       0.72697    0.40660    1.03038   1.00
H3       0.61200    0.43590    1.00404   1.00
H3       0.68213    0.36585    1.07851   1.00
H3       0.60925    0.38438    1.06180   1.00
N1       0.65643    0.44998    0.82782   1.00
C6       0.69346    0.44573    0.81655   1.00
C6       0.63427    0.43416    0.79991   1.00
C6       0.69505    0.42653    0.78128   1.00
C6       0.65741    0.41916    0.77070   1.00
H3       0.71800    0.45570    0.83310   1.00
H3       0.60303    0.43319    0.80076   1.00
H3       0.72075    0.41874    0.76509   1.00
H3       0.64787    0.40452    0.74458   1.00
C4       0.41520    0.18585    0.91502   1.00
C4       0.41480    0.14415    0.91498   1.00
C3a      0.43985    0.20754    0.94068   1.00
C3       0.44408    0.12268    0.89556   1.00
C3       0.39113    0.20732    0.88943   1.00
C3a      0.38494    0.12246    0.93432   1.00
C2       0.41501    0.27012    0.91492   1.00
C2       0.41501    0.05988    0.91492   1.00
C3       0.43931    0.24905    0.94027   1.00
C3       0.44420    0.08137    0.89566   1.00
C3       0.39099    0.24863    0.88950   1.00
C3       0.38556    0.08095    0.93404   1.00
C5       0.46666    0.18728    0.96932   1.00
H1       0.46723    0.13809    0.88055   1.00
H1       0.45795    0.26521    0.95996   1.00
H1       0.46731    0.06599    0.88061   1.00
H1       0.37193    0.26401    0.86956   1.00
H1       0.36291    0.06479    0.94895   1.00
C5       0.35229    0.14272    0.95607   1.00
H1       0.37202    0.19191    0.86953   1.00
H2       0.33926    0.12244    0.97773   1.00
H2       0.36398    0.16769    0.97310   1.00
H2       0.47440    0.20756    0.99338   1.00
H2       0.45139    0.16231    0.98322   1.00
N1       0.32213    0.15643    0.92912   1.00
C6       0.29858    0.13427    0.90735   1.00
C6       0.31214    0.19346    0.92242   1.00
C6       0.27357    0.15741    0.88607   1.00
C6       0.28218    0.19505    0.89566   1.00
H3       0.29962    0.10303    0.90660   1.00
H3       0.32596    0.21800    0.93590   1.00
H3       0.25149    0.14787    0.86585   1.00
H3       0.26820    0.22075    0.88438   1.00
N1       0.50218    0.17357    0.94998   1.00
C6       0.51345    0.13654    0.94573   1.00
C6       0.53009    0.19573    0.93416   1.00
C6       0.54872    0.13495    0.92653   1.00
C6       0.55930    0.17259    0.91916   1.00
H3       0.49690    0.11200    0.95570   1.00
H3       0.52924    0.22697    0.93319   1.00
H3       0.56491    0.10925    0.91874   1.00
H3       0.58542    0.18213    0.90452   1.00
C4       0.41502    0.41520    0.68585   1.00
C4       0.41498    0.41480    0.64415   1.00
C3a      0.44068    0.43985    0.70754   1.00
C3       0.39556    0.44408    0.62268   1.00
C3       0.38943    0.39113    0.70732   1.00
C3a      0.43432    0.38494    0.62246   1.00
C2       0.41492    0.41501    0.77012   1.00
C2       0.41492    0.41501    0.55988   1.00
C3       0.44027    0.43931    0.74905   1.00
C3       0.39566    0.44420    0.58137   1.00
C3       0.38950    0.39099    0.74863   1.00
C3       0.43404    0.38556    0.58095   1.00
C5       0.46932    0.46666    0.68728   1.00
H1       0.38055    0.46723    0.63809   1.00
H1       0.45996    0.45795    0.76521   1.00
H1       0.38061    0.46731    0.56599   1.00
H1       0.36956    0.37193    0.76401   1.00
H1       0.44895    0.36291    0.56479   1.00
C5       0.45607    0.35229    0.64272   1.00
H1       0.36953    0.37202    0.69191   1.00
H2       0.47773    0.33926    0.62244   1.00
H2       0.47310    0.36398    0.66769   1.00
H2       0.49338    0.47440    0.70756   1.00
H2       0.48322    0.45139    0.66231   1.00
N1       0.42912    0.32213    0.65643   1.00
C6       0.40735    0.29858    0.63427   1.00
C6       0.42242    0.31214    0.69346   1.00
C6       0.38607    0.27357    0.65741   1.00
C6       0.39566    0.28218    0.69505   1.00
H3       0.40660    0.29962    0.60303   1.00
H3       0.43590    0.32596    0.71800   1.00
H3       0.36585    0.25149    0.64787   1.00
H3       0.38438    0.26820    0.72075   1.00
N1       0.44998    0.50218    0.67357   1.00
C6       0.44573    0.51345    0.63654   1.00
C6       0.43416    0.53009    0.69573   1.00
C6       0.42653    0.54872    0.63495   1.00
C6       0.41916    0.55930    0.67259   1.00
H3       0.45570    0.49690    0.61200   1.00
H3       0.43319    0.52924    0.72697   1.00
H3       0.41874    0.56491    0.60925   1.00
H3       0.40452    0.58542    0.68213   1.00
C4       0.41502    0.91480    0.64415   1.00
C4       0.41498    0.91520    0.68585   1.00
C3a      0.44068    0.89015    0.62246   1.00
C3       0.39556    0.88592    0.70732   1.00
C3       0.38943    0.93887    0.62268   1.00
C3a      0.43432    0.94506    0.70754   1.00
C2       0.41492    0.91499    0.55988   1.00
C2       0.41492    0.91499    0.77012   1.00
C3       0.44027    0.89069    0.58095   1.00
C3       0.39566    0.88580    0.74863   1.00
C3       0.38950    0.93901    0.58137   1.00
C3       0.43404    0.94444    0.74905   1.00
C5       0.46932    0.86334    0.64272   1.00
H1       0.38055    0.86277    0.69191   1.00
H1       0.45996    0.87205    0.56479   1.00
H1       0.38061    0.86269    0.76401   1.00
H1       0.36956    0.95807    0.56599   1.00
H1       0.44895    0.96709    0.76521   1.00
C5       0.45607    0.97771    0.68728   1.00
H1       0.36953    0.95798    0.63809   1.00
H2       0.47773    0.99074    0.70756   1.00
H2       0.47310    0.96602    0.66231   1.00
H2       0.49338    0.85560    0.62244   1.00
H2       0.48322    0.87861    0.66769   1.00
N1       0.42912    1.00787    0.67357   1.00
C6       0.40735    1.03142    0.69573   1.00
C6       0.42242    1.01786    0.63654   1.00
C6       0.38607    1.05643    0.67259   1.00
C6       0.39566    1.04782    0.63495   1.00
H3       0.40660    1.03038    0.72697   1.00
H3       0.43590    1.00404    0.61200   1.00
H3       0.36585    1.07851    0.68213   1.00
H3       0.38438    1.06180    0.60925   1.00
N1       0.44998    0.82782    0.65643   1.00
C6       0.44573    0.81655    0.69346   1.00
C6       0.43416    0.79991    0.63427   1.00
C6       0.42653    0.78128    0.69505   1.00
C6       0.41916    0.77070    0.65741   1.00
H3       0.45570    0.83310    0.71800   1.00
H3       0.43319    0.80076    0.60303   1.00
H3       0.41874    0.76509    0.72075   1.00
H3       0.40452    0.74458    0.64787   1.00
C4       0.41480    1.14415    0.41502   1.00
C4       0.41520    1.18585    0.41498   1.00
C3a      0.39015    1.12246    0.44068   1.00
C3       0.38592    1.20732    0.39556   1.00
C3       0.43887    1.12268    0.38943   1.00
C3a      0.44506    1.20754    0.43432   1.00
C2       0.41499    1.05988    0.41492   1.00
C2       0.41499    1.27012    0.41492   1.00
C3       0.39069    1.08095    0.44027   1.00
C3       0.38580    1.24863    0.39566   1.00
C3       0.43901    1.08137    0.38950   1.00
C3       0.44444    1.24905    0.43404   1.00
C5       0.36334    1.14272    0.46932   1.00
H1       0.36277    1.19191    0.38055   1.00
H1       0.37205    1.06479    0.45996   1.00
H1       0.36269    1.26401    0.38061   1.00
H1       0.45807    1.06599    0.36956   1.00
H1       0.46709    1.26521    0.44895   1.00
C5       0.47771    1.18728    0.45607   1.00
H1       0.45798    1.13809    0.36953   1.00
H2       0.49074    1.20756    0.47773   1.00
H2       0.46602    1.16231    0.47310   1.00
H2       0.35560    1.12244    0.49338   1.00
H2       0.37861    1.16769    0.48322   1.00
N1       0.50787    1.17357    0.42912   1.00
C6       0.53142    1.19573    0.40735   1.00
C6       0.51786    1.13654    0.42242   1.00
C6       0.55643    1.17259    0.38607   1.00
C6       0.54782    1.13495    0.39566   1.00
H3       0.53038    1.22697    0.40660   1.00
H3       0.50404    1.11200    0.43590   1.00
H3       0.57851    1.18213    0.36585   1.00
H3       0.56180    1.10925    0.38438   1.00
N1       0.32782    1.15643    0.44998   1.00
C6       0.31655    1.19346    0.44573   1.00
C6       0.29991    1.13427    0.43416   1.00
C6       0.28128    1.19505    0.42653   1.00
C6       0.27070    1.15741    0.41916   1.00
H3       0.33310    1.21800    0.45570   1.00
H3       0.30076    1.10303    0.43319   1.00
H3       0.26509    1.22075    0.41874   1.00
H3       0.24458    1.14787    0.40452   1.00
C4       0.18585    0.91502    0.41520   1.00
C4       0.14415    0.91498    0.41480   1.00
C3a      0.20754    0.94068    0.43985   1.00
C3       0.12268    0.89556    0.44408   1.00
C3       0.20732    0.88943    0.39113   1.00
C3a      0.12246    0.93432    0.38494   1.00
C2       0.27012    0.91492    0.41501   1.00
C2       0.05988    0.91492    0.41501   1.00
C3       0.24905    0.94027    0.43931   1.00
C3       0.08137    0.89566    0.44420   1.00
C3       0.24863    0.88950    0.39099   1.00
C3       0.08095    0.93404    0.38556   1.00
C5       0.18728    0.96932    0.46666   1.00
H1       0.13809    0.88055    0.46723   1.00
H1       0.26521    0.95996    0.45795   1.00
H1       0.06599    0.88061    0.46731   1.00
H1       0.26401    0.86956    0.37193   1.00
H1       0.06479    0.94895    0.36291   1.00
C5       0.14272    0.95607    0.35229   1.00
H1       0.19191    0.86953    0.37202   1.00
H2       0.12244    0.97773    0.33926   1.00
H2       0.16769    0.97310    0.36398   1.00
H2       0.20756    0.99338    0.47440   1.00
H2       0.16231    0.98322    0.45139   1.00
N1       0.15643    0.92912    0.32213   1.00
C6       0.13427    0.90735    0.29858   1.00
C6       0.19346    0.92242    0.31214   1.00
C6       0.15741    0.88607    0.27357   1.00
C6       0.19505    0.89566    0.28218   1.00
H3       0.10303    0.90660    0.29962   1.00
H3       0.21800    0.93590    0.32596   1.00
H3       0.14787    0.86585    0.25149   1.00
H3       0.22075    0.88438    0.26820   1.00
N1       0.17357    0.94998    0.50218   1.00
C6       0.13654    0.94573    0.51345   1.00
C6       0.19573    0.93416    0.53009   1.00
C6       0.13495    0.92653    0.54872   1.00
C6       0.17259    0.91916    0.55930   1.00
H3       0.11200    0.95570    0.49690   1.00
H3       0.22697    0.93319    0.52924   1.00
H3       0.10925    0.91874    0.56491   1.00
H3       0.18213    0.90452    0.58542   1.00
C4       0.64415    0.91502    0.41480   1.00
C4       0.68585    0.91498    0.41520   1.00
C3a      0.62246    0.94068    0.39015   1.00
C3       0.70732    0.89556    0.38592   1.00
C3       0.62268    0.88943    0.43887   1.00
C3a      0.70754    0.93432    0.44506   1.00
C2       0.55988    0.91492    0.41499   1.00
C2       0.77012    0.91492    0.41499   1.00
C3       0.58095    0.94027    0.39069   1.00
C3       0.74863    0.89566    0.38580   1.00
C3       0.58137    0.88950    0.43901   1.00
C3       0.74905    0.93404    0.44444   1.00
C5       0.64272    0.96932    0.36334   1.00
H1       0.69191    0.88055    0.36277   1.00
H1       0.56479    0.95996    0.37205   1.00
H1       0.76401    0.88061    0.36269   1.00
H1       0.56599    0.86956    0.45807   1.00
H1       0.76521    0.94895    0.46709   1.00
C5       0.68728    0.95607    0.47771   1.00
H1       0.63809    0.86953    0.45798   1.00
H2       0.70756    0.97773    0.49074   1.00
H2       0.66231    0.97310    0.46602   1.00
H2       0.62244    0.99338    0.35560   1.00
H2       0.66769    0.98322    0.37861   1.00
N1       0.67357    0.92912    0.50787   1.00
C6       0.69573    0.90735    0.53142   1.00
C6       0.63654    0.92242    0.51786   1.00
C6       0.67259    0.88607    0.55643   1.00
C6       0.63495    0.89566    0.54782   1.00
H3       0.72697    0.90660    0.53038   1.00
H3       0.61200    0.93590    0.50404   1.00
H3       0.68213    0.86585    0.57851   1.00
H3       0.60925    0.88438    0.56180   1.00
N1       0.65643    0.94998    0.32782   1.00
C6       0.69346    0.94573    0.31655   1.00
C6       0.63427    0.93416    0.29991   1.00
C6       0.69505    0.92653    0.28128   1.00
C6       0.65741    0.91916    0.27070   1.00
H3       0.71800    0.95570    0.33310   1.00
H3       0.60303    0.93319    0.30076   1.00
H3       0.72075    0.91874    0.26509   1.00
H3       0.64787    0.90452    0.24458   1.00
C4       0.41520    0.68585    0.41502   1.00
C4       0.41480    0.64415    0.41498   1.00
C3a      0.43985    0.70754    0.44068   1.00
C3       0.44408    0.62268    0.39556   1.00
C3       0.39113    0.70732    0.38943   1.00
C3a      0.38494    0.62246    0.43432   1.00
C2       0.41501    0.77012    0.41492   1.00
C2       0.41501    0.55988    0.41492   1.00
C3       0.43931    0.74905    0.44027   1.00
C3       0.44420    0.58137    0.39566   1.00
C3       0.39099    0.74863    0.38950   1.00
C3       0.38556    0.58095    0.43404   1.00
C5       0.46666    0.68728    0.46932   1.00
H1       0.46723    0.63809    0.38055   1.00
H1       0.45795    0.76521    0.45996   1.00
H1       0.46731    0.56599    0.38061   1.00
H1       0.37193    0.76401    0.36956   1.00
H1       0.36291    0.56479    0.44895   1.00
C5       0.35229    0.64272    0.45607   1.00
H1       0.37202    0.69191    0.36953   1.00
H2       0.33926    0.62244    0.47773   1.00
H2       0.36398    0.66769    0.47310   1.00
H2       0.47440    0.70756    0.49338   1.00
H2       0.45139    0.66231    0.48322   1.00
N1       0.32213    0.65643    0.42912   1.00
C6       0.29858    0.63427    0.40735   1.00
C6       0.31214    0.69346    0.42242   1.00
C6       0.27357    0.65741    0.38607   1.00
C6       0.28218    0.69505    0.39566   1.00
H3       0.29962    0.60303    0.40660   1.00
H3       0.32596    0.71800    0.43590   1.00
H3       0.25149    0.64787    0.36585   1.00
H3       0.26820    0.72075    0.38438   1.00
N1       0.50218    0.67357    0.44998   1.00
C6       0.51345    0.63654    0.44573   1.00
C6       0.53009    0.69573    0.43416   1.00
C6       0.54872    0.63495    0.42653   1.00
C6       0.55930    0.67259    0.41916   1.00
H3       0.49690    0.61200    0.45570   1.00
H3       0.52924    0.72697    0.43319   1.00
H3       0.56491    0.60925    0.41874   1.00
H3       0.58542    0.68213    0.40452   1.00
C4       0.41502    0.91520    0.18585   1.00
C4       0.41498    0.91480    0.14415   1.00
C3a      0.44068    0.93985    0.20754   1.00
C3       0.39556    0.94408    0.12268   1.00
C3       0.38943    0.89113    0.20732   1.00
C3a      0.43432    0.88494    0.12246   1.00
C2       0.41492    0.91501    0.27012   1.00
C2       0.41492    0.91501    0.05988   1.00
C3       0.44027    0.93931    0.24905   1.00
C3       0.39566    0.94420    0.08137   1.00
C3       0.38950    0.89099    0.24863   1.00
C3       0.43404    0.88556    0.08095   1.00
C5       0.46932    0.96666    0.18728   1.00
H1       0.38055    0.96723    0.13809   1.00
H1       0.45996    0.95795    0.26521   1.00
H1       0.38061    0.96731    0.06599   1.00
H1       0.36956    0.87193    0.26401   1.00
H1       0.44895    0.86291    0.06479   1.00
C5       0.45607    0.85229    0.14272   1.00
H1       0.36953    0.87202    0.19191   1.00
H2       0.47773    0.83926    0.12244   1.00
H2       0.47310    0.86398    0.16769   1.00
H2       0.49338    0.97440    0.20756   1.00
H2       0.48322    0.95139    0.16231   1.00
N1       0.42912    0.82213    0.15643   1.00
C6       0.40735    0.79858    0.13427   1.00
C6       0.42242    0.81214    0.19346   1.00
C6       0.38607    0.77357    0.15741   1.00
C6       0.39566    0.78218    0.19505   1.00
H3       0.40660    0.79962    0.10303   1.00
H3       0.43590    0.82596    0.21800   1.00
H3       0.36585    0.75149    0.14787   1.00
H3       0.38438    0.76820    0.22075   1.00
N1       0.44998    1.00218    0.17357   1.00
C6       0.44573    1.01345    0.13654   1.00
C6       0.43416    1.03009    0.19573   1.00
C6       0.42653    1.04872    0.13495   1.00
C6       0.41916    1.05930    0.17259   1.00
H3       0.45570    0.99690    0.11200   1.00
H3       0.43319    1.02924    0.22697   1.00
H3       0.41874    1.06491    0.10925   1.00
H3       0.40452    1.08542    0.18213   1.00
C4       0.91502    0.41480    0.64415   1.00
C4       0.91498    0.41520    0.68585   1.00
C3a      0.94068    0.39015    0.62246   1.00
C3       0.89556    0.38592    0.70732   1.00
C3       0.88943    0.43887    0.62268   1.00
C3a      0.93432    0.44506    0.70754   1.00
C2       0.91492    0.41499    0.55988   1.00
C2       0.91492    0.41499    0.77012   1.00
C3       0.94027    0.39069    0.58095   1.00
C3       0.89566    0.38580    0.74863   1.00
C3       0.88950    0.43901    0.58137   1.00
C3       0.93404    0.44444    0.74905   1.00
C5       0.96932    0.36334    0.64272   1.00
H1       0.88055    0.36277    0.69191   1.00
H1       0.95996    0.37205    0.56479   1.00
H1       0.88061    0.36269    0.76401   1.00
H1       0.86956    0.45807    0.56599   1.00
H1       0.94895    0.46709    0.76521   1.00
C5       0.95607    0.47771    0.68728   1.00
H1       0.86953    0.45798    0.63809   1.00
H2       0.97773    0.49074    0.70756   1.00
H2       0.97310    0.46602    0.66231   1.00
H2       0.99338    0.35560    0.62244   1.00
H2       0.98322    0.37861    0.66769   1.00
N1       0.92912    0.50787    0.67357   1.00
C6       0.90735    0.53142    0.69573   1.00
C6       0.92242    0.51786    0.63654   1.00
C6       0.88607    0.55643    0.67259   1.00
C6       0.89566    0.54782    0.63495   1.00
H3       0.90660    0.53038    0.72697   1.00
H3       0.93590    0.50404    0.61200   1.00
H3       0.86585    0.57851    0.68213   1.00
H3       0.88438    0.56180    0.60925   1.00
N1       0.94998    0.32782    0.65643   1.00
C6       0.94573    0.31655    0.69346   1.00
C6       0.93416    0.29991    0.63427   1.00
C6       0.92653    0.28128    0.69505   1.00
C6       0.91916    0.27070    0.65741   1.00
H3       0.95570    0.33310    0.71800   1.00
H3       0.93319    0.30076    0.60303   1.00
H3       0.91874    0.26509    0.72075   1.00
H3       0.90452    0.24458    0.64787   1.00
C4       0.91480    0.64415    0.41502   1.00
C4       0.91520    0.68585    0.41498   1.00
C3a      0.89015    0.62246    0.44068   1.00
C3       0.88592    0.70732    0.39556   1.00
C3       0.93887    0.62268    0.38943   1.00
C3a      0.94506    0.70754    0.43432   1.00
C2       0.91499    0.55988    0.41492   1.00
C2       0.91499    0.77012    0.41492   1.00
C3       0.89069    0.58095    0.44027   1.00
C3       0.88580    0.74863    0.39566   1.00
C3       0.93901    0.58137    0.38950   1.00
C3       0.94444    0.74905    0.43404   1.00
C5       0.86334    0.64272    0.46932   1.00
H1       0.86277    0.69191    0.38055   1.00
H1       0.87205    0.56479    0.45996   1.00
H1       0.86269    0.76401    0.38061   1.00
H1       0.95807    0.56599    0.36956   1.00
H1       0.96709    0.76521    0.44895   1.00
C5       0.97771    0.68728    0.45607   1.00
H1       0.95798    0.63809    0.36953   1.00
H2       0.99074    0.70756    0.47773   1.00
H2       0.96602    0.66231    0.47310   1.00
H2       0.85560    0.62244    0.49338   1.00
H2       0.87861    0.66769    0.48322   1.00
N1       1.00787    0.67357    0.42912   1.00
C6       1.03142    0.69573    0.40735   1.00
C6       1.01786    0.63654    0.42242   1.00
C6       1.05643    0.67259    0.38607   1.00
C6       1.04782    0.63495    0.39566   1.00
H3       1.03038    0.72697    0.40660   1.00
H3       1.00404    0.61200    0.43590   1.00
H3       1.07851    0.68213    0.36585   1.00
H3       1.06180    0.60925    0.38438   1.00
N1       0.82782    0.65643    0.44998   1.00
C6       0.81655    0.69346    0.44573   1.00
C6       0.79991    0.63427    0.43416   1.00
C6       0.78128    0.69505    0.42653   1.00
C6       0.77070    0.65741    0.41916   1.00
H3       0.83310    0.71800    0.45570   1.00
H3       0.80076    0.60303    0.43319   1.00
H3       0.76509    0.72075    0.41874   1.00
H3       0.74458    0.64787    0.40452   1.00
C4       0.68585    0.41502    0.41520   1.00
C4       0.64415    0.41498    0.41480   1.00
C3a      0.70754    0.44068    0.43985   1.00
C3       0.62268    0.39556    0.44408   1.00
C3       0.70732    0.38943    0.39113   1.00
C3a      0.62246    0.43432    0.38494   1.00
C2       0.77012    0.41492    0.41501   1.00
C2       0.55988    0.41492    0.41501   1.00
C3       0.74905    0.44027    0.43931   1.00
C3       0.58137    0.39566    0.44420   1.00
C3       0.74863    0.38950    0.39099   1.00
C3       0.58095    0.43404    0.38556   1.00
C5       0.68728    0.46932    0.46666   1.00
H1       0.63809    0.38055    0.46723   1.00
H1       0.76521    0.45996    0.45795   1.00
H1       0.56599    0.38061    0.46731   1.00
H1       0.76401    0.36956    0.37193   1.00
H1       0.56479    0.44895    0.36291   1.00
C5       0.64272    0.45607    0.35229   1.00
H1       0.69191    0.36953    0.37202   1.00
H2       0.62244    0.47773    0.33926   1.00
H2       0.66769    0.47310    0.36398   1.00
H2       0.70756    0.49338    0.47440   1.00
H2       0.66231    0.48322    0.45139   1.00
N1       0.65643    0.42912    0.32213   1.00
C6       0.63427    0.40735    0.29858   1.00
C6       0.69346    0.42242    0.31214   1.00
C6       0.65741    0.38607    0.27357   1.00
C6       0.69505    0.39566    0.28218   1.00
H3       0.60303    0.40660    0.29962   1.00
H3       0.71800    0.43590    0.32596   1.00
H3       0.64787    0.36585    0.25149   1.00
H3       0.72075    0.38438    0.26820   1.00
N1       0.67357    0.44998    0.50218   1.00
C6       0.63654    0.44573    0.51345   1.00
C6       0.69573    0.43416    0.53009   1.00
C6       0.63495    0.42653    0.54872   1.00
C6       0.67259    0.41916    0.55930   1.00
H3       0.61200    0.45570    0.49690   1.00
H3       0.72697    0.43319    0.52924   1.00
H3       0.60925    0.41874    0.56491   1.00
H3       0.68213    0.40452    0.58542   1.00
C4       1.14415    0.41502    0.41480   1.00
C4       1.18585    0.41498    0.41520   1.00
C3a      1.12246    0.44068    0.39015   1.00
C3       1.20732    0.39556    0.38592   1.00
C3       1.12268    0.38943    0.43887   1.00
C3a      1.20754    0.43432    0.44506   1.00
C2       1.05988    0.41492    0.41499   1.00
C2       1.27012    0.41492    0.41499   1.00
C3       1.08095    0.44027    0.39069   1.00
C3       1.24863    0.39566    0.38580   1.00
C3       1.08137    0.38950    0.43901   1.00
C3       1.24905    0.43404    0.44444   1.00
C5       1.14272    0.46932    0.36334   1.00
H1       1.19191    0.38055    0.36277   1.00
H1       1.06479    0.45996    0.37205   1.00
H1       1.26401    0.38061    0.36269   1.00
H1       1.06599    0.36956    0.45807   1.00
H1       1.26521    0.44895    0.46709   1.00
C5       1.18728    0.45607    0.47771   1.00
H1       1.13809    0.36953    0.45798   1.00
H2       1.20756    0.47773    0.49074   1.00
H2       1.16231    0.47310    0.46602   1.00
H2       1.12244    0.49338    0.35560   1.00
H2       1.16769    0.48322    0.37861   1.00
N1       1.17357    0.42912    0.50787   1.00
C6       1.19573    0.40735    0.53142   1.00
C6       1.13654    0.42242    0.51786   1.00
C6       1.17259    0.38607    0.55643   1.00
C6       1.13495    0.39566    0.54782   1.00
H3       1.22697    0.40660    0.53038   1.00
H3       1.11200    0.43590    0.50404   1.00
H3       1.18213    0.36585    0.57851   1.00
H3       1.10925    0.38438    0.56180   1.00
N1       1.15643    0.44998    0.32782   1.00
C6       1.19346    0.44573    0.31655   1.00
C6       1.13427    0.43416    0.29991   1.00
C6       1.19505    0.42653    0.28128   1.00
C6       1.15741    0.41916    0.27070   1.00
H3       1.21800    0.45570    0.33310   1.00
H3       1.10303    0.43319    0.30076   1.00
H3       1.22075    0.41874    0.26509   1.00
H3       1.14787    0.40452    0.24458   1.00
C4       0.91520    0.18585    0.41502   1.00
C4       0.91480    0.14415    0.41498   1.00
C3a      0.93985    0.20754    0.44068   1.00
C3       0.94408    0.12268    0.39556   1.00
C3       0.89113    0.20732    0.38943   1.00
C3a      0.88494    0.12246    0.43432   1.00
C2       0.91501    0.27012    0.41492   1.00
C2       0.91501    0.05988    0.41492   1.00
C3       0.93931    0.24905    0.44027   1.00
C3       0.94420    0.08137    0.39566   1.00
C3       0.89099    0.24863    0.38950   1.00
C3       0.88556    0.08095    0.43404   1.00
C5       0.96666    0.18728    0.46932   1.00
H1       0.96723    0.13809    0.38055   1.00
H1       0.95795    0.26521    0.45996   1.00
H1       0.96731    0.06599    0.38061   1.00
H1       0.87193    0.26401    0.36956   1.00
H1       0.86291    0.06479    0.44895   1.00
C5       0.85229    0.14272    0.45607   1.00
H1       0.87202    0.19191    0.36953   1.00
H2       0.83926    0.12244    0.47773   1.00
H2       0.86398    0.16769    0.47310   1.00
H2       0.97440    0.20756    0.49338   1.00
H2       0.95139    0.16231    0.48322   1.00
N1       0.82213    0.15643    0.42912   1.00
C6       0.79858    0.13427    0.40735   1.00
C6       0.81214    0.19346    0.42242   1.00
C6       0.77357    0.15741    0.38607   1.00
C6       0.78218    0.19505    0.39566   1.00
H3       0.79962    0.10303    0.40660   1.00
H3       0.82596    0.21800    0.43590   1.00
H3       0.75149    0.14787    0.36585   1.00
H3       0.76820    0.22075    0.38438   1.00
N1       1.00218    0.17357    0.44998   1.00
C6       1.01345    0.13654    0.44573   1.00
C6       1.03009    0.19573    0.43416   1.00
C6       1.04872    0.13495    0.42653   1.00
C6       1.05930    0.17259    0.41916   1.00
H3       0.99690    0.11200    0.45570   1.00
H3       1.02924    0.22697    0.43319   1.00
H3       1.06491    0.10925    0.41874   1.00
H3       1.08542    0.18213    0.40452   1.00
C4       0.91502    0.41520    0.18585   1.00
C4       0.91498    0.41480    0.14415   1.00
C3a      0.94068    0.43985    0.20754   1.00
C3       0.89556    0.44408    0.12268   1.00
C3       0.88943    0.39113    0.20732   1.00
C3a      0.93432    0.38494    0.12246   1.00
C2       0.91492    0.41501    0.27012   1.00
C2       0.91492    0.41501    0.05988   1.00
C3       0.94027    0.43931    0.24905   1.00
C3       0.89566    0.44420    0.08137   1.00
C3       0.88950    0.39099    0.24863   1.00
C3       0.93404    0.38556    0.08095   1.00
C5       0.96932    0.46666    0.18728   1.00
H1       0.88055    0.46723    0.13809   1.00
H1       0.95996    0.45795    0.26521   1.00
H1       0.88061    0.46731    0.06599   1.00
H1       0.86956    0.37193    0.26401   1.00
H1       0.94895    0.36291    0.06479   1.00
C5       0.95607    0.35229    0.14272   1.00
H1       0.86953    0.37202    0.19191   1.00
H2       0.97773    0.33926    0.12244   1.00
H2       0.97310    0.36398    0.16769   1.00
H2       0.99338    0.47440    0.20756   1.00
H2       0.98322    0.45139    0.16231   1.00
N1       0.92912    0.32213    0.15643   1.00
C6       0.90735    0.29858    0.13427   1.00
C6       0.92242    0.31214    0.19346   1.00
C6       0.88607    0.27357    0.15741   1.00
C6       0.89566    0.28218    0.19505   1.00
H3       0.90660    0.29962    0.10303   1.00
H3       0.93590    0.32596    0.21800   1.00
H3       0.86585    0.25149    0.14787   1.00
H3       0.88438    0.26820    0.22075   1.00
N1       0.94998    0.50218    0.17357   1.00
C6       0.94573    0.51345    0.13654   1.00
C6       0.93416    0.53009    0.19573   1.00
C6       0.92653    0.54872    0.13495   1.00
C6       0.91916    0.55930    0.17259   1.00
H3       0.95570    0.49690    0.11200   1.00
H3       0.93319    0.52924    0.22697   1.00
H3       0.91874    0.56491    0.10925   1.00
H3       0.90452    0.58542    0.18213   1.00
