data_IRMOF10_SG202_interpen_Ligand4cp_label_c.

_audit_creation_method             'generated by an auxiliary program of Tobunporous'

_symmetry_space_group_name_H-M     'P 1'
_symmetry_Int_Tables_number        1
_symmetry_cell_setting             triclinic

_cell_length_a                    34.2800
_cell_length_b                    34.2800
_cell_length_c                    34.2800
_cell_angle_alpha                 90.0000
_cell_angle_beta                  90.0000
_cell_angle_gamma                 90.0000

loop_
_atom_site_label
_atom_site_fract_x
_atom_site_fract_y
_atom_site_fract_z
_atom_site_occupancy
O1       0.75000    0.75000    0.75000   1.00
Zn1      0.71720    0.78280    0.78280   1.00
Zn1      0.78280    0.71720    0.78280   1.00
Zn1      0.78280    0.78280    0.71720   1.00
Zn1      0.71720    0.71720    0.71720   1.00
O2       0.72650    0.77350    0.83820   1.00
O2       0.72650    0.83820    0.77350   1.00
O2       0.66180    0.77350    0.77350   1.00
O2       0.77350    0.72650    0.83820   1.00
O2       0.83820    0.72650    0.77350   1.00
O2       0.77350    0.66180    0.77350   1.00
O2       0.77350    0.83820    0.72650   1.00
O2       0.83820    0.77350    0.72650   1.00
O2       0.77350    0.77350    0.66180   1.00
O2       0.66180    0.72650    0.72650   1.00
O2       0.72650    0.66180    0.72650   1.00
O2       0.72650    0.72650    0.66180   1.00
C1       0.75000    0.75000    0.85520   1.00
C1       0.75000    0.85520    0.75000   1.00
C1       0.64480    0.75000    0.75000   1.00
C1       0.85520    0.75000    0.75000   1.00
C1       0.75000    0.64480    0.75000   1.00
C1       0.75000    0.75000    0.64480   1.00
O1       0.25000    0.25000    0.75000   1.00
Zn1      0.21720    0.28280    0.78280   1.00
Zn1      0.28280    0.21720    0.78280   1.00
Zn1      0.28280    0.28280    0.71720   1.00
Zn1      0.21720    0.21720    0.71720   1.00
O2       0.22650    0.27350    0.83820   1.00
O2       0.22650    0.33820    0.77350   1.00
O2       0.16180    0.27350    0.77350   1.00
O2       0.27350    0.22650    0.83820   1.00
O2       0.33820    0.22650    0.77350   1.00
O2       0.27350    0.16180    0.77350   1.00
O2       0.27350    0.33820    0.72650   1.00
O2       0.33820    0.27350    0.72650   1.00
O2       0.27350    0.27350    0.66180   1.00
O2       0.16180    0.22650    0.72650   1.00
O2       0.22650    0.16180    0.72650   1.00
O2       0.22650    0.22650    0.66180   1.00
C1       0.25000    0.25000    0.85520   1.00
C1       0.25000    0.35520    0.75000   1.00
C1       0.14480    0.25000    0.75000   1.00
C1       0.35520    0.25000    0.75000   1.00
C1       0.25000    0.14480    0.75000   1.00
C1       0.25000    0.25000    0.64480   1.00
O1       0.25000    0.75000    0.25000   1.00
Zn1      0.21720    0.78280    0.28280   1.00
Zn1      0.28280    0.71720    0.28280   1.00
Zn1      0.28280    0.78280    0.21720   1.00
Zn1      0.21720    0.71720    0.21720   1.00
O2       0.22650    0.77350    0.33820   1.00
O2       0.22650    0.83820    0.27350   1.00
O2       0.16180    0.77350    0.27350   1.00
O2       0.27350    0.72650    0.33820   1.00
O2       0.33820    0.72650    0.27350   1.00
O2       0.27350    0.66180    0.27350   1.00
O2       0.27350    0.83820    0.22650   1.00
O2       0.33820    0.77350    0.22650   1.00
O2       0.27350    0.77350    0.16180   1.00
O2       0.16180    0.72650    0.22650   1.00
O2       0.22650    0.66180    0.22650   1.00
O2       0.22650    0.72650    0.16180   1.00
C1       0.25000    0.75000    0.35520   1.00
C1       0.25000    0.85520    0.25000   1.00
C1       0.14480    0.75000    0.25000   1.00
C1       0.35520    0.75000    0.25000   1.00
C1       0.25000    0.64480    0.25000   1.00
C1       0.25000    0.75000    0.14480   1.00
O1       0.75000    0.25000    0.25000   1.00
Zn1      0.71720    0.28280    0.28280   1.00
Zn1      0.78280    0.21720    0.28280   1.00
Zn1      0.78280    0.28280    0.21720   1.00
Zn1      0.71720    0.21720    0.21720   1.00
O2       0.72650    0.27350    0.33820   1.00
O2       0.72650    0.33820    0.27350   1.00
O2       0.66180    0.27350    0.27350   1.00
O2       0.77350    0.22650    0.33820   1.00
O2       0.83820    0.22650    0.27350   1.00
O2       0.77350    0.16180    0.27350   1.00
O2       0.77350    0.33820    0.22650   1.00
O2       0.83820    0.27350    0.22650   1.00
O2       0.77350    0.27350    0.16180   1.00
O2       0.66180    0.22650    0.22650   1.00
O2       0.72650    0.16180    0.22650   1.00
O2       0.72650    0.22650    0.16180   1.00
C1       0.75000    0.25000    0.35520   1.00
C1       0.75000    0.35520    0.25000   1.00
C1       0.64480    0.25000    0.25000   1.00
C1       0.85520    0.25000    0.25000   1.00
C1       0.75000    0.14480    0.25000   1.00
C1       0.75000    0.25000    0.14480   1.00
O1       0.25000    0.25000    0.25000   1.00
Zn1      0.28280    0.21720    0.21720   1.00
Zn1      0.21720    0.28280    0.21720   1.00
Zn1      0.21720    0.21720    0.28280   1.00
Zn1      0.28280    0.28280    0.28280   1.00
O2       0.27350    0.22650    0.16180   1.00
O2       0.27350    0.16180    0.22650   1.00
O2       0.33820    0.22650    0.22650   1.00
O2       0.22650    0.27350    0.16180   1.00
O2       0.16180    0.27350    0.22650   1.00
O2       0.22650    0.33820    0.22650   1.00
O2       0.22650    0.16180    0.27350   1.00
O2       0.16180    0.22650    0.27350   1.00
O2       0.22650    0.22650    0.33820   1.00
O2       0.33820    0.27350    0.27350   1.00
O2       0.27350    0.33820    0.27350   1.00
O2       0.27350    0.27350    0.33820   1.00
C1       0.25000    0.25000    0.14480   1.00
C1       0.25000    0.14480    0.25000   1.00
C1       0.35520    0.25000    0.25000   1.00
C1       0.14480    0.25000    0.25000   1.00
C1       0.25000    0.35520    0.25000   1.00
C1       0.25000    0.25000    0.35520   1.00
O1       0.75000    0.75000    0.25000   1.00
Zn1      0.78280    0.71720    0.21720   1.00
Zn1      0.71720    0.78280    0.21720   1.00
Zn1      0.71720    0.71720    0.28280   1.00
Zn1      0.78280    0.78280    0.28280   1.00
O2       0.77350    0.72650    0.16180   1.00
O2       0.77350    0.66180    0.22650   1.00
O2       0.83820    0.72650    0.22650   1.00
O2       0.72650    0.77350    0.16180   1.00
O2       0.66180    0.77350    0.22650   1.00
O2       0.72650    0.83820    0.22650   1.00
O2       0.72650    0.66180    0.27350   1.00
O2       0.66180    0.72650    0.27350   1.00
O2       0.72650    0.72650    0.33820   1.00
O2       0.83820    0.77350    0.27350   1.00
O2       0.77350    0.83820    0.27350   1.00
O2       0.77350    0.77350    0.33820   1.00
C1       0.75000    0.75000    0.14480   1.00
C1       0.75000    0.64480    0.25000   1.00
C1       0.85520    0.75000    0.25000   1.00
C1       0.64480    0.75000    0.25000   1.00
C1       0.75000    0.85520    0.25000   1.00
C1       0.75000    0.75000    0.35520   1.00
O1       0.75000    0.25000    0.75000   1.00
Zn1      0.78280    0.21720    0.71720   1.00
Zn1      0.71720    0.28280    0.71720   1.00
Zn1      0.71720    0.21720    0.78280   1.00
Zn1      0.78280    0.28280    0.78280   1.00
O2       0.77350    0.22650    0.66180   1.00
O2       0.77350    0.16180    0.72650   1.00
O2       0.83820    0.22650    0.72650   1.00
O2       0.72650    0.27350    0.66180   1.00
O2       0.66180    0.27350    0.72650   1.00
O2       0.72650    0.33820    0.72650   1.00
O2       0.72650    0.16180    0.77350   1.00
O2       0.66180    0.22650    0.77350   1.00
O2       0.72650    0.22650    0.83820   1.00
O2       0.83820    0.27350    0.77350   1.00
O2       0.77350    0.33820    0.77350   1.00
O2       0.77350    0.27350    0.83820   1.00
C1       0.75000    0.25000    0.64480   1.00
C1       0.75000    0.14480    0.75000   1.00
C1       0.85520    0.25000    0.75000   1.00
C1       0.64480    0.25000    0.75000   1.00
C1       0.75000    0.35520    0.75000   1.00
C1       0.75000    0.25000    0.85520   1.00
O1       0.25000    0.75000    0.75000   1.00
Zn1      0.28280    0.71720    0.71720   1.00
Zn1      0.21720    0.78280    0.71720   1.00
Zn1      0.21720    0.71720    0.78280   1.00
Zn1      0.28280    0.78280    0.78280   1.00
O2       0.27350    0.72650    0.66180   1.00
O2       0.27350    0.66180    0.72650   1.00
O2       0.33820    0.72650    0.72650   1.00
O2       0.22650    0.77350    0.66180   1.00
O2       0.16180    0.77350    0.72650   1.00
O2       0.22650    0.83820    0.72650   1.00
O2       0.22650    0.66180    0.77350   1.00
O2       0.16180    0.72650    0.77350   1.00
O2       0.22650    0.72650    0.83820   1.00
O2       0.33820    0.77350    0.77350   1.00
O2       0.27350    0.83820    0.77350   1.00
O2       0.27350    0.77350    0.83820   1.00
C1       0.25000    0.75000    0.64480   1.00
C1       0.25000    0.64480    0.75000   1.00
C1       0.35520    0.75000    0.75000   1.00
C1       0.14480    0.75000    0.75000   1.00
C1       0.25000    0.85520    0.75000   1.00
C1       0.25000    0.75000    0.85520   1.00
O1       0.91500    0.91500    0.91500   1.00
Zn1      0.88220    0.94780    0.94780   1.00
Zn1      0.94780    0.88220    0.94780   1.00
Zn1      0.94780    0.94780    0.88220   1.00
Zn1      0.88220    0.88220    0.88220   1.00
O2       0.89150    0.93850    1.00320   1.00
O2       0.89150    1.00320    0.93850   1.00
O2       0.82680    0.93850    0.93850   1.00
O2       0.93850    0.89150    1.00320   1.00
O2       1.00320    0.89150    0.93850   1.00
O2       0.93850    0.82680    0.93850   1.00
O2       0.93850    1.00320    0.89150   1.00
O2       1.00320    0.93850    0.89150   1.00
O2       0.93850    0.93850    0.82680   1.00
O2       0.82680    0.89150    0.89150   1.00
O2       0.89150    0.82680    0.89150   1.00
O2       0.89150    0.89150    0.82680   1.00
C1       0.91500    0.91500    1.02020   1.00
C1       0.91500    1.02020    0.91500   1.00
C1       0.80980    0.91500    0.91500   1.00
C1       1.02020    0.91500    0.91500   1.00
C1       0.91500    0.80980    0.91500   1.00
C1       0.91500    0.91500    0.80980   1.00
O1       0.41500    0.41500    0.91500   1.00
Zn1      0.38220    0.44780    0.94780   1.00
Zn1      0.44780    0.38220    0.94780   1.00
Zn1      0.44780    0.44780    0.88220   1.00
Zn1      0.38220    0.38220    0.88220   1.00
O2       0.39150    0.43850    1.00320   1.00
O2       0.39150    0.50320    0.93850   1.00
O2       0.32680    0.43850    0.93850   1.00
O2       0.43850    0.39150    1.00320   1.00
O2       0.50320    0.39150    0.93850   1.00
O2       0.43850    0.32680    0.93850   1.00
O2       0.43850    0.50320    0.89150   1.00
O2       0.50320    0.43850    0.89150   1.00
O2       0.43850    0.43850    0.82680   1.00
O2       0.32680    0.39150    0.89150   1.00
O2       0.39150    0.32680    0.89150   1.00
O2       0.39150    0.39150    0.82680   1.00
C1       0.41500    0.41500    1.02020   1.00
C1       0.41500    0.52020    0.91500   1.00
C1       0.30980    0.41500    0.91500   1.00
C1       0.52020    0.41500    0.91500   1.00
C1       0.41500    0.30980    0.91500   1.00
C1       0.41500    0.41500    0.80980   1.00
O1       0.41500    0.91500    0.41500   1.00
Zn1      0.38220    0.94780    0.44780   1.00
Zn1      0.44780    0.88220    0.44780   1.00
Zn1      0.44780    0.94780    0.38220   1.00
Zn1      0.38220    0.88220    0.38220   1.00
O2       0.39150    0.93850    0.50320   1.00
O2       0.39150    1.00320    0.43850   1.00
O2       0.32680    0.93850    0.43850   1.00
O2       0.43850    0.89150    0.50320   1.00
O2       0.50320    0.89150    0.43850   1.00
O2       0.43850    0.82680    0.43850   1.00
O2       0.43850    1.00320    0.39150   1.00
O2       0.50320    0.93850    0.39150   1.00
O2       0.43850    0.93850    0.32680   1.00
O2       0.32680    0.89150    0.39150   1.00
O2       0.39150    0.82680    0.39150   1.00
O2       0.39150    0.89150    0.32680   1.00
C1       0.41500    0.91500    0.52020   1.00
C1       0.41500    1.02020    0.41500   1.00
C1       0.30980    0.91500    0.41500   1.00
C1       0.52020    0.91500    0.41500   1.00
C1       0.41500    0.80980    0.41500   1.00
C1       0.41500    0.91500    0.30980   1.00
O1       0.91500    0.41500    0.41500   1.00
Zn1      0.88220    0.44780    0.44780   1.00
Zn1      0.94780    0.38220    0.44780   1.00
Zn1      0.94780    0.44780    0.38220   1.00
Zn1      0.88220    0.38220    0.38220   1.00
O2       0.89150    0.43850    0.50320   1.00
O2       0.89150    0.50320    0.43850   1.00
O2       0.82680    0.43850    0.43850   1.00
O2       0.93850    0.39150    0.50320   1.00
O2       1.00320    0.39150    0.43850   1.00
O2       0.93850    0.32680    0.43850   1.00
O2       0.93850    0.50320    0.39150   1.00
O2       1.00320    0.43850    0.39150   1.00
O2       0.93850    0.43850    0.32680   1.00
O2       0.82680    0.39150    0.39150   1.00
O2       0.89150    0.32680    0.39150   1.00
O2       0.89150    0.39150    0.32680   1.00
C1       0.91500    0.41500    0.52020   1.00
C1       0.91500    0.52020    0.41500   1.00
C1       0.80980    0.41500    0.41500   1.00
C1       1.02020    0.41500    0.41500   1.00
C1       0.91500    0.30980    0.41500   1.00
C1       0.91500    0.41500    0.30980   1.00
O1       0.41500    0.41500    0.41500   1.00
Zn1      0.44780    0.38220    0.38220   1.00
Zn1      0.38220    0.44780    0.38220   1.00
Zn1      0.38220    0.38220    0.44780   1.00
Zn1      0.44780    0.44780    0.44780   1.00
O2       0.43850    0.39150    0.32680   1.00
O2       0.43850    0.32680    0.39150   1.00
O2       0.50320    0.39150    0.39150   1.00
O2       0.39150    0.43850    0.32680   1.00
O2       0.32680    0.43850    0.39150   1.00
O2       0.39150    0.50320    0.39150   1.00
O2       0.39150    0.32680    0.43850   1.00
O2       0.32680    0.39150    0.43850   1.00
O2       0.39150    0.39150    0.50320   1.00
O2       0.50320    0.43850    0.43850   1.00
O2       0.43850    0.50320    0.43850   1.00
O2       0.43850    0.43850    0.50320   1.00
C1       0.41500    0.41500    0.30980   1.00
C1       0.41500    0.30980    0.41500   1.00
C1       0.52020    0.41500    0.41500   1.00
C1       0.30980    0.41500    0.41500   1.00
C1       0.41500    0.52020    0.41500   1.00
C1       0.41500    0.41500    0.52020   1.00
O1       0.91500    0.91500    0.41500   1.00
Zn1      0.94780    0.88220    0.38220   1.00
Zn1      0.88220    0.94780    0.38220   1.00
Zn1      0.88220    0.88220    0.44780   1.00
Zn1      0.94780    0.94780    0.44780   1.00
O2       0.93850    0.89150    0.32680   1.00
O2       0.93850    0.82680    0.39150   1.00
O2       1.00320    0.89150    0.39150   1.00
O2       0.89150    0.93850    0.32680   1.00
O2       0.82680    0.93850    0.39150   1.00
O2       0.89150    1.00320    0.39150   1.00
O2       0.89150    0.82680    0.43850   1.00
O2       0.82680    0.89150    0.43850   1.00
O2       0.89150    0.89150    0.50320   1.00
O2       1.00320    0.93850    0.43850   1.00
O2       0.93850    1.00320    0.43850   1.00
O2       0.93850    0.93850    0.50320   1.00
C1       0.91500    0.91500    0.30980   1.00
C1       0.91500    0.80980    0.41500   1.00
C1       1.02020    0.91500    0.41500   1.00
C1       0.80980    0.91500    0.41500   1.00
C1       0.91500    1.02020    0.41500   1.00
C1       0.91500    0.91500    0.52020   1.00
O1       0.91500    0.41500    0.91500   1.00
Zn1      0.94780    0.38220    0.88220   1.00
Zn1      0.88220    0.44780    0.88220   1.00
Zn1      0.88220    0.38220    0.94780   1.00
Zn1      0.94780    0.44780    0.94780   1.00
O2       0.93850    0.39150    0.82680   1.00
O2       0.93850    0.32680    0.89150   1.00
O2       1.00320    0.39150    0.89150   1.00
O2       0.89150    0.43850    0.82680   1.00
O2       0.82680    0.43850    0.89150   1.00
O2       0.89150    0.50320    0.89150   1.00
O2       0.89150    0.32680    0.93850   1.00
O2       0.82680    0.39150    0.93850   1.00
O2       0.89150    0.39150    1.00320   1.00
O2       1.00320    0.43850    0.93850   1.00
O2       0.93850    0.50320    0.93850   1.00
O2       0.93850    0.43850    1.00320   1.00
C1       0.91500    0.41500    0.80980   1.00
C1       0.91500    0.30980    0.91500   1.00
C1       1.02020    0.41500    0.91500   1.00
C1       0.80980    0.41500    0.91500   1.00
C1       0.91500    0.52020    0.91500   1.00
C1       0.91500    0.41500    1.02020   1.00
O1       0.41500    0.91500    0.91500   1.00
Zn1      0.44780    0.88220    0.88220   1.00
Zn1      0.38220    0.94780    0.88220   1.00
Zn1      0.38220    0.88220    0.94780   1.00
Zn1      0.44780    0.94780    0.94780   1.00
O2       0.43850    0.89150    0.82680   1.00
O2       0.43850    0.82680    0.89150   1.00
O2       0.50320    0.89150    0.89150   1.00
O2       0.39150    0.93850    0.82680   1.00
O2       0.32680    0.93850    0.89150   1.00
O2       0.39150    1.00320    0.89150   1.00
O2       0.39150    0.82680    0.93850   1.00
O2       0.32680    0.89150    0.93850   1.00
O2       0.39150    0.89150    1.00320   1.00
O2       0.50320    0.93850    0.93850   1.00
O2       0.43850    1.00320    0.93850   1.00
O2       0.43850    0.93850    1.00320   1.00
C1       0.41500    0.91500    0.80980   1.00
C1       0.41500    0.80980    0.91500   1.00
C1       0.52020    0.91500    0.91500   1.00
C1       0.30980    0.91500    0.91500   1.00
C1       0.41500    1.02020    0.91500   1.00
C1       0.41500    0.91500    1.02020   1.00
C4       0.75114    0.74535    0.98025   1.00
C4       0.75015    0.74415    1.02191   1.00
C3       0.78634    0.75144    0.95897   1.00
C3       0.78469    0.74486    1.04504   1.00
C3       0.71585    0.74036    0.95854   1.00
C3       0.71347    0.74212    1.04170   1.00
C2       0.75349    0.74585    0.89595   1.00
C2       0.74811    0.74368    1.10622   1.00
C3       0.78759    0.75151    0.91811   1.00
C3       0.78378    0.74483    1.08591   1.00
C3       0.71841    0.74040    0.91696   1.00
C3       0.71379    0.74236    1.08336   1.00
H1       0.81233    0.75646    0.97237   1.00
H1       0.81184    0.74503    1.03306   1.00
C5       0.67927    0.73574    0.97835   1.00
C5       0.67778    0.73968    1.01998   1.00
H1       0.81393    0.75590    0.90451   1.00
H1       0.80972    0.74553    1.10091   1.00
H1       0.69399    0.73668    0.90052   1.00
H1       0.68829    0.74121    1.09848   1.00
C6       0.64286    0.72635    0.95515   1.00
C6       0.63907    0.74174    1.04119   1.00
H2       0.64980    0.70417    0.93345   1.00
H2       0.64045    0.76474    1.06310   1.00
H2       0.62119    0.71142    0.97286   1.00
H2       0.61589    0.75230    1.02228   1.00
C6       0.62363    0.76321    0.93606   1.00
C6       0.62635    0.70176    1.05942   1.00
H2       0.64626    0.78146    0.92292   1.00
H2       0.65135    0.68816    1.07383   1.00
C6       0.59126    0.75624    0.90459   1.00
C6       0.59163    0.70219    1.08911   1.00
H2       0.61116    0.78088    0.95949   1.00
H2       0.61877    0.68214    1.03546   1.00
C6       0.60806    0.73673    0.86735   1.00
C6       0.60236    0.72439    1.12708   1.00
C6       0.55747    0.73092    0.92074   1.00
C6       0.55448    0.72059    1.07107   1.00
C6       0.57408    0.79637    0.89245   1.00
C6       0.58191    0.65943    1.10054   1.00
H2       0.63242    0.75358    0.85558   1.00
H2       0.62886    0.71250    1.14020   1.00
H2       0.61851    0.70732    0.87330   1.00
H2       0.60723    0.75529    1.12154   1.00
H2       0.58590    0.73447    0.84459   1.00
H2       0.57902    0.72221    1.14863   1.00
H2       0.53381    0.72856    0.89955   1.00
H2       0.52973    0.71822    1.09098   1.00
H2       0.56744    0.70142    0.92725   1.00
H2       0.55890    0.75149    1.06494   1.00
H2       0.54565    0.74359    0.94745   1.00
H2       0.54676    0.70602    1.04385   1.00
H2       0.59672    0.81529    0.88042   1.00
H2       0.60712    0.64518    1.11383   1.00
H2       0.55146    0.79305    0.87025   1.00
H2       0.55794    0.65822    1.12149   1.00
H2       0.56104    0.81128    0.91739   1.00
H2       0.57332    0.64242    1.07502   1.00
C4       0.74535    0.98025    0.75114   1.00
C4       0.74415    1.02191    0.75015   1.00
C3       0.75144    0.95897    0.78634   1.00
C3       0.74486    1.04504    0.78469   1.00
C3       0.74036    0.95854    0.71585   1.00
C3       0.74212    1.04170    0.71347   1.00
C2       0.74585    0.89595    0.75349   1.00
C2       0.74368    1.10622    0.74811   1.00
C3       0.75151    0.91811    0.78759   1.00
C3       0.74483    1.08591    0.78378   1.00
C3       0.74040    0.91696    0.71841   1.00
C3       0.74236    1.08336    0.71379   1.00
H1       0.75646    0.97237    0.81233   1.00
H1       0.74503    1.03306    0.81184   1.00
C5       0.73574    0.97835    0.67927   1.00
C5       0.73968    1.01998    0.67778   1.00
H1       0.75590    0.90451    0.81393   1.00
H1       0.74553    1.10091    0.80972   1.00
H1       0.73668    0.90052    0.69399   1.00
H1       0.74121    1.09848    0.68829   1.00
C6       0.72635    0.95515    0.64286   1.00
C6       0.74174    1.04119    0.63907   1.00
H2       0.70417    0.93345    0.64980   1.00
H2       0.76474    1.06310    0.64045   1.00
H2       0.71142    0.97286    0.62119   1.00
H2       0.75230    1.02228    0.61589   1.00
C6       0.76321    0.93606    0.62363   1.00
C6       0.70176    1.05942    0.62635   1.00
H2       0.78146    0.92292    0.64626   1.00
H2       0.68816    1.07383    0.65135   1.00
C6       0.75624    0.90459    0.59126   1.00
C6       0.70219    1.08911    0.59163   1.00
H2       0.78088    0.95949    0.61116   1.00
H2       0.68214    1.03546    0.61877   1.00
C6       0.73673    0.86735    0.60806   1.00
C6       0.72439    1.12708    0.60236   1.00
C6       0.73092    0.92074    0.55747   1.00
C6       0.72059    1.07107    0.55448   1.00
C6       0.79637    0.89245    0.57408   1.00
C6       0.65943    1.10054    0.58191   1.00
H2       0.75358    0.85558    0.63242   1.00
H2       0.71250    1.14020    0.62886   1.00
H2       0.70732    0.87330    0.61851   1.00
H2       0.75529    1.12154    0.60723   1.00
H2       0.73447    0.84459    0.58590   1.00
H2       0.72221    1.14863    0.57902   1.00
H2       0.72856    0.89955    0.53381   1.00
H2       0.71822    1.09098    0.52973   1.00
H2       0.70142    0.92725    0.56744   1.00
H2       0.75149    1.06494    0.55890   1.00
H2       0.74359    0.94745    0.54565   1.00
H2       0.70602    1.04385    0.54676   1.00
H2       0.81529    0.88042    0.59672   1.00
H2       0.64518    1.11383    0.60712   1.00
H2       0.79305    0.87025    0.55146   1.00
H2       0.65822    1.12149    0.55794   1.00
H2       0.81128    0.91739    0.56104   1.00
H2       0.64242    1.07502    0.57332   1.00
C4       0.51975    0.75114    0.75465   1.00
C4       0.47809    0.75015    0.75585   1.00
C3       0.54103    0.78634    0.74856   1.00
C3       0.45496    0.78469    0.75514   1.00
C3       0.54146    0.71585    0.75964   1.00
C3       0.45830    0.71347    0.75788   1.00
C2       0.60405    0.75349    0.75415   1.00
C2       0.39378    0.74811    0.75632   1.00
C3       0.58189    0.78759    0.74849   1.00
C3       0.41409    0.78378    0.75517   1.00
C3       0.58304    0.71841    0.75960   1.00
C3       0.41664    0.71379    0.75764   1.00
H1       0.52763    0.81233    0.74354   1.00
H1       0.46694    0.81184    0.75497   1.00
C5       0.52165    0.67927    0.76426   1.00
C5       0.48002    0.67778    0.76032   1.00
H1       0.59549    0.81393    0.74410   1.00
H1       0.39909    0.80972    0.75447   1.00
H1       0.59948    0.69399    0.76332   1.00
H1       0.40152    0.68829    0.75879   1.00
C6       0.54485    0.64286    0.77365   1.00
C6       0.45881    0.63907    0.75826   1.00
H2       0.56655    0.64980    0.79583   1.00
H2       0.43690    0.64045    0.73526   1.00
H2       0.52714    0.62119    0.78858   1.00
H2       0.47772    0.61589    0.74770   1.00
C6       0.56394    0.62363    0.73679   1.00
C6       0.44058    0.62635    0.79824   1.00
H2       0.57708    0.64626    0.71854   1.00
H2       0.42617    0.65135    0.81184   1.00
C6       0.59541    0.59126    0.74376   1.00
C6       0.41089    0.59163    0.79781   1.00
H2       0.54051    0.61116    0.71912   1.00
H2       0.46454    0.61877    0.81786   1.00
C6       0.63265    0.60806    0.76327   1.00
C6       0.37292    0.60236    0.77561   1.00
C6       0.57926    0.55747    0.76908   1.00
C6       0.42893    0.55448    0.77941   1.00
C6       0.60755    0.57408    0.70363   1.00
C6       0.39946    0.58191    0.84057   1.00
H2       0.64442    0.63242    0.74642   1.00
H2       0.35980    0.62886    0.78750   1.00
H2       0.62670    0.61851    0.79268   1.00
H2       0.37846    0.60723    0.74471   1.00
H2       0.65541    0.58590    0.76553   1.00
H2       0.35137    0.57902    0.77779   1.00
H2       0.60045    0.53381    0.77144   1.00
H2       0.40902    0.52973    0.78178   1.00
H2       0.57275    0.56744    0.79858   1.00
H2       0.43506    0.55890    0.74851   1.00
H2       0.55255    0.54565    0.75641   1.00
H2       0.45615    0.54676    0.79398   1.00
H2       0.61958    0.59672    0.68471   1.00
H2       0.38617    0.60712    0.85482   1.00
H2       0.62975    0.55146    0.70695   1.00
H2       0.37851    0.55794    0.84178   1.00
H2       0.58261    0.56104    0.68872   1.00
H2       0.42498    0.57332    0.85758   1.00
C4       0.98025    0.75114    0.74535   1.00
C4       1.02191    0.75015    0.74415   1.00
C3       0.95897    0.78634    0.75144   1.00
C3       1.04504    0.78469    0.74486   1.00
C3       0.95854    0.71585    0.74036   1.00
C3       1.04170    0.71347    0.74212   1.00
C2       0.89595    0.75349    0.74585   1.00
C2       1.10622    0.74811    0.74368   1.00
C3       0.91811    0.78759    0.75151   1.00
C3       1.08591    0.78378    0.74483   1.00
C3       0.91696    0.71841    0.74040   1.00
C3       1.08336    0.71379    0.74236   1.00
H1       0.97237    0.81233    0.75646   1.00
H1       1.03306    0.81184    0.74503   1.00
C5       0.97835    0.67927    0.73574   1.00
C5       1.01998    0.67778    0.73968   1.00
H1       0.90451    0.81393    0.75590   1.00
H1       1.10091    0.80972    0.74553   1.00
H1       0.90052    0.69399    0.73668   1.00
H1       1.09848    0.68829    0.74121   1.00
C6       0.95515    0.64286    0.72635   1.00
C6       1.04119    0.63907    0.74174   1.00
H2       0.93345    0.64980    0.70417   1.00
H2       1.06310    0.64045    0.76474   1.00
H2       0.97286    0.62119    0.71142   1.00
H2       1.02228    0.61589    0.75230   1.00
C6       0.93606    0.62363    0.76321   1.00
C6       1.05942    0.62635    0.70176   1.00
H2       0.92292    0.64626    0.78146   1.00
H2       1.07383    0.65135    0.68816   1.00
C6       0.90459    0.59126    0.75624   1.00
C6       1.08911    0.59163    0.70219   1.00
H2       0.95949    0.61116    0.78088   1.00
H2       1.03546    0.61877    0.68214   1.00
C6       0.86735    0.60806    0.73673   1.00
C6       1.12708    0.60236    0.72439   1.00
C6       0.92074    0.55747    0.73092   1.00
C6       1.07107    0.55448    0.72059   1.00
C6       0.89245    0.57408    0.79637   1.00
C6       1.10054    0.58191    0.65943   1.00
H2       0.85558    0.63242    0.75358   1.00
H2       1.14020    0.62886    0.71250   1.00
H2       0.87330    0.61851    0.70732   1.00
H2       1.12154    0.60723    0.75529   1.00
H2       0.84459    0.58590    0.73447   1.00
H2       1.14863    0.57902    0.72221   1.00
H2       0.89955    0.53381    0.72856   1.00
H2       1.09098    0.52973    0.71822   1.00
H2       0.92725    0.56744    0.70142   1.00
H2       1.06494    0.55890    0.75149   1.00
H2       0.94745    0.54565    0.74359   1.00
H2       1.04385    0.54676    0.70602   1.00
H2       0.88042    0.59672    0.81529   1.00
H2       1.11383    0.60712    0.64518   1.00
H2       0.87025    0.55146    0.79305   1.00
H2       1.12149    0.55794    0.65822   1.00
H2       0.91739    0.56104    0.81128   1.00
H2       1.07502    0.57332    0.64242   1.00
C4       0.75465    0.51975    0.75114   1.00
C4       0.75585    0.47809    0.75015   1.00
C3       0.74856    0.54103    0.78634   1.00
C3       0.75514    0.45496    0.78469   1.00
C3       0.75964    0.54146    0.71585   1.00
C3       0.75788    0.45830    0.71347   1.00
C2       0.75415    0.60405    0.75349   1.00
C2       0.75632    0.39378    0.74811   1.00
C3       0.74849    0.58189    0.78759   1.00
C3       0.75517    0.41409    0.78378   1.00
C3       0.75960    0.58304    0.71841   1.00
C3       0.75764    0.41664    0.71379   1.00
H1       0.74354    0.52763    0.81233   1.00
H1       0.75497    0.46694    0.81184   1.00
C5       0.76426    0.52165    0.67927   1.00
C5       0.76032    0.48002    0.67778   1.00
H1       0.74410    0.59549    0.81393   1.00
H1       0.75447    0.39909    0.80972   1.00
H1       0.76332    0.59948    0.69399   1.00
H1       0.75879    0.40152    0.68829   1.00
C6       0.77365    0.54485    0.64286   1.00
C6       0.75826    0.45881    0.63907   1.00
H2       0.79583    0.56655    0.64980   1.00
H2       0.73526    0.43690    0.64045   1.00
H2       0.78858    0.52714    0.62119   1.00
H2       0.74770    0.47772    0.61589   1.00
C6       0.73679    0.56394    0.62363   1.00
C6       0.79824    0.44058    0.62635   1.00
H2       0.71854    0.57708    0.64626   1.00
H2       0.81184    0.42617    0.65135   1.00
C6       0.74376    0.59541    0.59126   1.00
C6       0.79781    0.41089    0.59163   1.00
H2       0.71912    0.54051    0.61116   1.00
H2       0.81786    0.46454    0.61877   1.00
C6       0.76327    0.63265    0.60806   1.00
C6       0.77561    0.37292    0.60236   1.00
C6       0.76908    0.57926    0.55747   1.00
C6       0.77941    0.42893    0.55448   1.00
C6       0.70363    0.60755    0.57408   1.00
C6       0.84057    0.39946    0.58191   1.00
H2       0.74642    0.64442    0.63242   1.00
H2       0.78750    0.35980    0.62886   1.00
H2       0.79268    0.62670    0.61851   1.00
H2       0.74471    0.37846    0.60723   1.00
H2       0.76553    0.65541    0.58590   1.00
H2       0.77779    0.35137    0.57902   1.00
H2       0.77144    0.60045    0.53381   1.00
H2       0.78178    0.40902    0.52973   1.00
H2       0.79858    0.57275    0.56744   1.00
H2       0.74851    0.43506    0.55890   1.00
H2       0.75641    0.55255    0.54565   1.00
H2       0.79398    0.45615    0.54676   1.00
H2       0.68471    0.61958    0.59672   1.00
H2       0.85482    0.38617    0.60712   1.00
H2       0.70695    0.62975    0.55146   1.00
H2       0.84178    0.37851    0.55794   1.00
H2       0.68872    0.58261    0.56104   1.00
H2       0.85758    0.42498    0.57332   1.00
C4       0.75114    0.75465    0.51975   1.00
C4       0.75015    0.75585    0.47809   1.00
C3       0.78634    0.74856    0.54103   1.00
C3       0.78469    0.75514    0.45496   1.00
C3       0.71585    0.75964    0.54146   1.00
C3       0.71347    0.75788    0.45830   1.00
C2       0.75349    0.75415    0.60405   1.00
C2       0.74811    0.75632    0.39378   1.00
C3       0.78759    0.74849    0.58189   1.00
C3       0.78378    0.75517    0.41409   1.00
C3       0.71841    0.75960    0.58304   1.00
C3       0.71379    0.75764    0.41664   1.00
H1       0.81233    0.74354    0.52763   1.00
H1       0.81184    0.75497    0.46694   1.00
C5       0.67927    0.76426    0.52165   1.00
C5       0.67778    0.76032    0.48002   1.00
H1       0.81393    0.74410    0.59549   1.00
H1       0.80972    0.75447    0.39909   1.00
H1       0.69399    0.76332    0.59948   1.00
H1       0.68829    0.75879    0.40152   1.00
C6       0.64286    0.77365    0.54485   1.00
C6       0.63907    0.75826    0.45881   1.00
H2       0.64980    0.79583    0.56655   1.00
H2       0.64045    0.73526    0.43690   1.00
H2       0.62119    0.78858    0.52714   1.00
H2       0.61589    0.74770    0.47772   1.00
C6       0.62363    0.73679    0.56394   1.00
C6       0.62635    0.79824    0.44058   1.00
H2       0.64626    0.71854    0.57708   1.00
H2       0.65135    0.81184    0.42617   1.00
C6       0.59126    0.74376    0.59541   1.00
C6       0.59163    0.79781    0.41089   1.00
H2       0.61116    0.71912    0.54051   1.00
H2       0.61877    0.81786    0.46454   1.00
C6       0.60806    0.76327    0.63265   1.00
C6       0.60236    0.77561    0.37292   1.00
C6       0.55747    0.76908    0.57926   1.00
C6       0.55448    0.77941    0.42893   1.00
C6       0.57408    0.70363    0.60755   1.00
C6       0.58191    0.84057    0.39946   1.00
H2       0.63242    0.74642    0.64442   1.00
H2       0.62886    0.78750    0.35980   1.00
H2       0.61851    0.79268    0.62670   1.00
H2       0.60723    0.74471    0.37846   1.00
H2       0.58590    0.76553    0.65541   1.00
H2       0.57902    0.77779    0.35137   1.00
H2       0.53381    0.77144    0.60045   1.00
H2       0.52973    0.78178    0.40902   1.00
H2       0.56744    0.79858    0.57275   1.00
H2       0.55890    0.74851    0.43506   1.00
H2       0.54565    0.75641    0.55255   1.00
H2       0.54676    0.79398    0.45615   1.00
H2       0.59672    0.68471    0.61958   1.00
H2       0.60712    0.85482    0.38617   1.00
H2       0.55146    0.70695    0.62975   1.00
H2       0.55794    0.84178    0.37851   1.00
H2       0.56104    0.68872    0.58261   1.00
H2       0.57332    0.85758    0.42498   1.00
C4       0.25114    0.24535    0.98025   1.00
C4       0.25015    0.24415    1.02191   1.00
C3       0.28634    0.25144    0.95897   1.00
C3       0.28469    0.24486    1.04504   1.00
C3       0.21585    0.24036    0.95854   1.00
C3       0.21347    0.24212    1.04170   1.00
C2       0.25349    0.24585    0.89595   1.00
C2       0.24811    0.24368    1.10622   1.00
C3       0.28759    0.25151    0.91811   1.00
C3       0.28378    0.24483    1.08591   1.00
C3       0.21841    0.24040    0.91696   1.00
C3       0.21379    0.24236    1.08336   1.00
H1       0.31233    0.25646    0.97237   1.00
H1       0.31184    0.24503    1.03306   1.00
C5       0.17927    0.23574    0.97835   1.00
C5       0.17778    0.23968    1.01998   1.00
H1       0.31393    0.25590    0.90451   1.00
H1       0.30972    0.24553    1.10091   1.00
H1       0.19399    0.23668    0.90052   1.00
H1       0.18829    0.24121    1.09848   1.00
C6       0.14286    0.22635    0.95515   1.00
C6       0.13907    0.24174    1.04119   1.00
H2       0.14980    0.20417    0.93345   1.00
H2       0.14045    0.26474    1.06310   1.00
H2       0.12119    0.21142    0.97286   1.00
H2       0.11589    0.25230    1.02228   1.00
C6       0.12363    0.26321    0.93606   1.00
C6       0.12635    0.20176    1.05942   1.00
H2       0.14626    0.28146    0.92292   1.00
H2       0.15135    0.18816    1.07383   1.00
C6       0.09126    0.25624    0.90459   1.00
C6       0.09163    0.20219    1.08911   1.00
H2       0.11116    0.28088    0.95949   1.00
H2       0.11877    0.18214    1.03546   1.00
C6       0.10806    0.23673    0.86735   1.00
C6       0.10236    0.22439    1.12708   1.00
C6       0.05747    0.23092    0.92074   1.00
C6       0.05448    0.22059    1.07107   1.00
C6       0.07408    0.29637    0.89245   1.00
C6       0.08191    0.15943    1.10054   1.00
H2       0.13242    0.25358    0.85558   1.00
H2       0.12886    0.21250    1.14020   1.00
H2       0.11851    0.20732    0.87330   1.00
H2       0.10723    0.25529    1.12154   1.00
H2       0.08590    0.23447    0.84459   1.00
H2       0.07902    0.22221    1.14863   1.00
H2       0.03381    0.22856    0.89955   1.00
H2       0.02973    0.21822    1.09098   1.00
H2       0.06744    0.20142    0.92725   1.00
H2       0.05890    0.25149    1.06494   1.00
H2       0.04565    0.24359    0.94745   1.00
H2       0.04676    0.20602    1.04385   1.00
H2       0.09672    0.31529    0.88042   1.00
H2       0.10712    0.14518    1.11383   1.00
H2       0.05146    0.29305    0.87025   1.00
H2       0.05794    0.15822    1.12149   1.00
H2       0.06104    0.31128    0.91739   1.00
H2       0.07332    0.14242    1.07502   1.00
C4       0.24535    0.48025    0.75114   1.00
C4       0.24415    0.52191    0.75015   1.00
C3       0.25144    0.45897    0.78634   1.00
C3       0.24486    0.54504    0.78469   1.00
C3       0.24036    0.45854    0.71585   1.00
C3       0.24212    0.54170    0.71347   1.00
C2       0.24585    0.39595    0.75349   1.00
C2       0.24368    0.60622    0.74811   1.00
C3       0.25151    0.41811    0.78759   1.00
C3       0.24483    0.58591    0.78378   1.00
C3       0.24040    0.41696    0.71841   1.00
C3       0.24236    0.58336    0.71379   1.00
H1       0.25646    0.47237    0.81233   1.00
H1       0.24503    0.53306    0.81184   1.00
C5       0.23574    0.47835    0.67927   1.00
C5       0.23968    0.51998    0.67778   1.00
H1       0.25590    0.40451    0.81393   1.00
H1       0.24553    0.60091    0.80972   1.00
H1       0.23668    0.40052    0.69399   1.00
H1       0.24121    0.59848    0.68829   1.00
C6       0.22635    0.45515    0.64286   1.00
C6       0.24174    0.54119    0.63907   1.00
H2       0.20417    0.43345    0.64980   1.00
H2       0.26474    0.56310    0.64045   1.00
H2       0.21142    0.47286    0.62119   1.00
H2       0.25230    0.52228    0.61589   1.00
C6       0.26321    0.43606    0.62363   1.00
C6       0.20176    0.55942    0.62635   1.00
H2       0.28146    0.42292    0.64626   1.00
H2       0.18816    0.57383    0.65135   1.00
C6       0.25624    0.40459    0.59126   1.00
C6       0.20219    0.58911    0.59163   1.00
H2       0.28088    0.45949    0.61116   1.00
H2       0.18214    0.53546    0.61877   1.00
C6       0.23673    0.36735    0.60806   1.00
C6       0.22439    0.62708    0.60236   1.00
C6       0.23092    0.42074    0.55747   1.00
C6       0.22059    0.57107    0.55448   1.00
C6       0.29637    0.39245    0.57408   1.00
C6       0.15943    0.60054    0.58191   1.00
H2       0.25358    0.35558    0.63242   1.00
H2       0.21250    0.64020    0.62886   1.00
H2       0.20732    0.37330    0.61851   1.00
H2       0.25529    0.62154    0.60723   1.00
H2       0.23447    0.34459    0.58590   1.00
H2       0.22221    0.64863    0.57902   1.00
H2       0.22856    0.39955    0.53381   1.00
H2       0.21822    0.59098    0.52973   1.00
H2       0.20142    0.42725    0.56744   1.00
H2       0.25149    0.56494    0.55890   1.00
H2       0.24359    0.44745    0.54565   1.00
H2       0.20602    0.54385    0.54676   1.00
H2       0.31529    0.38042    0.59672   1.00
H2       0.14518    0.61383    0.60712   1.00
H2       0.29305    0.37025    0.55146   1.00
H2       0.15822    0.62149    0.55794   1.00
H2       0.31128    0.41739    0.56104   1.00
H2       0.14242    0.57502    0.57332   1.00
C4       0.01975    0.25114    0.75465   1.00
C4       -0.02191   0.25015    0.75585   1.00
C3       0.04103    0.28634    0.74856   1.00
C3       -0.04504   0.28469    0.75514   1.00
C3       0.04146    0.21585    0.75964   1.00
C3       -0.04170   0.21347    0.75788   1.00
C2       0.10405    0.25349    0.75415   1.00
C2       -0.10622   0.24811    0.75632   1.00
C3       0.08189    0.28759    0.74849   1.00
C3       -0.08591   0.28378    0.75517   1.00
C3       0.08304    0.21841    0.75960   1.00
C3       -0.08336   0.21379    0.75764   1.00
H1       0.02763    0.31233    0.74354   1.00
H1       -0.03306   0.31184    0.75497   1.00
C5       0.02165    0.17927    0.76426   1.00
C5       -0.01998   0.17778    0.76032   1.00
H1       0.09549    0.31393    0.74410   1.00
H1       -0.10091   0.30972    0.75447   1.00
H1       0.09948    0.19399    0.76332   1.00
H1       -0.09848   0.18829    0.75879   1.00
C6       0.04485    0.14286    0.77365   1.00
C6       -0.04119   0.13907    0.75826   1.00
H2       0.06655    0.14980    0.79583   1.00
H2       -0.06310   0.14045    0.73526   1.00
H2       0.02714    0.12119    0.78858   1.00
H2       -0.02228   0.11589    0.74770   1.00
C6       0.06394    0.12363    0.73679   1.00
C6       -0.05942   0.12635    0.79824   1.00
H2       0.07708    0.14626    0.71854   1.00
H2       -0.07383   0.15135    0.81184   1.00
C6       0.09541    0.09126    0.74376   1.00
C6       -0.08911   0.09163    0.79781   1.00
H2       0.04051    0.11116    0.71912   1.00
H2       -0.03546   0.11877    0.81786   1.00
C6       0.13265    0.10806    0.76327   1.00
C6       -0.12708   0.10236    0.77561   1.00
C6       0.07926    0.05747    0.76908   1.00
C6       -0.07107   0.05448    0.77941   1.00
C6       0.10755    0.07408    0.70363   1.00
C6       -0.10054   0.08191    0.84057   1.00
H2       0.14442    0.13242    0.74642   1.00
H2       -0.14020   0.12886    0.78750   1.00
H2       0.12670    0.11851    0.79268   1.00
H2       -0.12154   0.10723    0.74471   1.00
H2       0.15541    0.08590    0.76553   1.00
H2       -0.14863   0.07902    0.77779   1.00
H2       0.10045    0.03381    0.77144   1.00
H2       -0.09098   0.02973    0.78178   1.00
H2       0.07275    0.06744    0.79858   1.00
H2       -0.06494   0.05890    0.74851   1.00
H2       0.05255    0.04565    0.75641   1.00
H2       -0.04385   0.04676    0.79398   1.00
H2       0.11958    0.09672    0.68471   1.00
H2       -0.11383   0.10712    0.85482   1.00
H2       0.12975    0.05146    0.70695   1.00
H2       -0.12149   0.05794    0.84178   1.00
H2       0.08261    0.06104    0.68872   1.00
H2       -0.07502   0.07332    0.85758   1.00
C4       0.48025    0.25114    0.74535   1.00
C4       0.52191    0.25015    0.74415   1.00
C3       0.45897    0.28634    0.75144   1.00
C3       0.54504    0.28469    0.74486   1.00
C3       0.45854    0.21585    0.74036   1.00
C3       0.54170    0.21347    0.74212   1.00
C2       0.39595    0.25349    0.74585   1.00
C2       0.60622    0.24811    0.74368   1.00
C3       0.41811    0.28759    0.75151   1.00
C3       0.58591    0.28378    0.74483   1.00
C3       0.41696    0.21841    0.74040   1.00
C3       0.58336    0.21379    0.74236   1.00
H1       0.47237    0.31233    0.75646   1.00
H1       0.53306    0.31184    0.74503   1.00
C5       0.47835    0.17927    0.73574   1.00
C5       0.51998    0.17778    0.73968   1.00
H1       0.40451    0.31393    0.75590   1.00
H1       0.60091    0.30972    0.74553   1.00
H1       0.40052    0.19399    0.73668   1.00
H1       0.59848    0.18829    0.74121   1.00
C6       0.45515    0.14286    0.72635   1.00
C6       0.54119    0.13907    0.74174   1.00
H2       0.43345    0.14980    0.70417   1.00
H2       0.56310    0.14045    0.76474   1.00
H2       0.47286    0.12119    0.71142   1.00
H2       0.52228    0.11589    0.75230   1.00
C6       0.43606    0.12363    0.76321   1.00
C6       0.55942    0.12635    0.70176   1.00
H2       0.42292    0.14626    0.78146   1.00
H2       0.57383    0.15135    0.68816   1.00
C6       0.40459    0.09126    0.75624   1.00
C6       0.58911    0.09163    0.70219   1.00
H2       0.45949    0.11116    0.78088   1.00
H2       0.53546    0.11877    0.68214   1.00
C6       0.36735    0.10806    0.73673   1.00
C6       0.62708    0.10236    0.72439   1.00
C6       0.42074    0.05747    0.73092   1.00
C6       0.57107    0.05448    0.72059   1.00
C6       0.39245    0.07408    0.79637   1.00
C6       0.60054    0.08191    0.65943   1.00
H2       0.35558    0.13242    0.75358   1.00
H2       0.64020    0.12886    0.71250   1.00
H2       0.37330    0.11851    0.70732   1.00
H2       0.62154    0.10723    0.75529   1.00
H2       0.34459    0.08590    0.73447   1.00
H2       0.64863    0.07902    0.72221   1.00
H2       0.39955    0.03381    0.72856   1.00
H2       0.59098    0.02973    0.71822   1.00
H2       0.42725    0.06744    0.70142   1.00
H2       0.56494    0.05890    0.75149   1.00
H2       0.44745    0.04565    0.74359   1.00
H2       0.54385    0.04676    0.70602   1.00
H2       0.38042    0.09672    0.81529   1.00
H2       0.61383    0.10712    0.64518   1.00
H2       0.37025    0.05146    0.79305   1.00
H2       0.62149    0.05794    0.65822   1.00
H2       0.41739    0.06104    0.81128   1.00
H2       0.57502    0.07332    0.64242   1.00
C4       0.25465    0.01975    0.75114   1.00
C4       0.25585    -0.02191   0.75015   1.00
C3       0.24856    0.04103    0.78634   1.00
C3       0.25514    -0.04504   0.78469   1.00
C3       0.25964    0.04146    0.71585   1.00
C3       0.25788    -0.04170   0.71347   1.00
C2       0.25415    0.10405    0.75349   1.00
C2       0.25632    -0.10622   0.74811   1.00
C3       0.24849    0.08189    0.78759   1.00
C3       0.25517    -0.08591   0.78378   1.00
C3       0.25960    0.08304    0.71841   1.00
C3       0.25764    -0.08336   0.71379   1.00
H1       0.24354    0.02763    0.81233   1.00
H1       0.25497    -0.03306   0.81184   1.00
C5       0.26426    0.02165    0.67927   1.00
C5       0.26032    -0.01998   0.67778   1.00
H1       0.24410    0.09549    0.81393   1.00
H1       0.25447    -0.10091   0.80972   1.00
H1       0.26332    0.09948    0.69399   1.00
H1       0.25879    -0.09848   0.68829   1.00
C6       0.27365    0.04485    0.64286   1.00
C6       0.25826    -0.04119   0.63907   1.00
H2       0.29583    0.06655    0.64980   1.00
H2       0.23526    -0.06310   0.64045   1.00
H2       0.28858    0.02714    0.62119   1.00
H2       0.24770    -0.02228   0.61589   1.00
C6       0.23679    0.06394    0.62363   1.00
C6       0.29824    -0.05942   0.62635   1.00
H2       0.21854    0.07708    0.64626   1.00
H2       0.31184    -0.07383   0.65135   1.00
C6       0.24376    0.09541    0.59126   1.00
C6       0.29781    -0.08911   0.59163   1.00
H2       0.21912    0.04051    0.61116   1.00
H2       0.31786    -0.03546   0.61877   1.00
C6       0.26327    0.13265    0.60806   1.00
C6       0.27561    -0.12708   0.60236   1.00
C6       0.26908    0.07926    0.55747   1.00
C6       0.27941    -0.07107   0.55448   1.00
C6       0.20363    0.10755    0.57408   1.00
C6       0.34057    -0.10054   0.58191   1.00
H2       0.24642    0.14442    0.63242   1.00
H2       0.28750    -0.14020   0.62886   1.00
H2       0.29268    0.12670    0.61851   1.00
H2       0.24471    -0.12154   0.60723   1.00
H2       0.26553    0.15541    0.58590   1.00
H2       0.27779    -0.14863   0.57902   1.00
H2       0.27144    0.10045    0.53381   1.00
H2       0.28178    -0.09098   0.52973   1.00
H2       0.29858    0.07275    0.56744   1.00
H2       0.24851    -0.06494   0.55890   1.00
H2       0.25641    0.05255    0.54565   1.00
H2       0.29398    -0.04385   0.54676   1.00
H2       0.18471    0.11958    0.59672   1.00
H2       0.35482    -0.11383   0.60712   1.00
H2       0.20695    0.12975    0.55146   1.00
H2       0.34178    -0.12149   0.55794   1.00
H2       0.18872    0.08261    0.56104   1.00
H2       0.35758    -0.07502   0.57332   1.00
C4       0.25114    0.25465    0.51975   1.00
C4       0.25015    0.25585    0.47809   1.00
C3       0.28634    0.24856    0.54103   1.00
C3       0.28469    0.25514    0.45496   1.00
C3       0.21585    0.25964    0.54146   1.00
C3       0.21347    0.25788    0.45830   1.00
C2       0.25349    0.25415    0.60405   1.00
C2       0.24811    0.25632    0.39378   1.00
C3       0.28759    0.24849    0.58189   1.00
C3       0.28378    0.25517    0.41409   1.00
C3       0.21841    0.25960    0.58304   1.00
C3       0.21379    0.25764    0.41664   1.00
H1       0.31233    0.24354    0.52763   1.00
H1       0.31184    0.25497    0.46694   1.00
C5       0.17927    0.26426    0.52165   1.00
C5       0.17778    0.26032    0.48002   1.00
H1       0.31393    0.24410    0.59549   1.00
H1       0.30972    0.25447    0.39909   1.00
H1       0.19399    0.26332    0.59948   1.00
H1       0.18829    0.25879    0.40152   1.00
C6       0.14286    0.27365    0.54485   1.00
C6       0.13907    0.25826    0.45881   1.00
H2       0.14980    0.29583    0.56655   1.00
H2       0.14045    0.23526    0.43690   1.00
H2       0.12119    0.28858    0.52714   1.00
H2       0.11589    0.24770    0.47772   1.00
C6       0.12363    0.23679    0.56394   1.00
C6       0.12635    0.29824    0.44058   1.00
H2       0.14626    0.21854    0.57708   1.00
H2       0.15135    0.31184    0.42617   1.00
C6       0.09126    0.24376    0.59541   1.00
C6       0.09163    0.29781    0.41089   1.00
H2       0.11116    0.21912    0.54051   1.00
H2       0.11877    0.31786    0.46454   1.00
C6       0.10806    0.26327    0.63265   1.00
C6       0.10236    0.27561    0.37292   1.00
C6       0.05747    0.26908    0.57926   1.00
C6       0.05448    0.27941    0.42893   1.00
C6       0.07408    0.20363    0.60755   1.00
C6       0.08191    0.34057    0.39946   1.00
H2       0.13242    0.24642    0.64442   1.00
H2       0.12886    0.28750    0.35980   1.00
H2       0.11851    0.29268    0.62670   1.00
H2       0.10723    0.24471    0.37846   1.00
H2       0.08590    0.26553    0.65541   1.00
H2       0.07902    0.27779    0.35137   1.00
H2       0.03381    0.27144    0.60045   1.00
H2       0.02973    0.28178    0.40902   1.00
H2       0.06744    0.29858    0.57275   1.00
H2       0.05890    0.24851    0.43506   1.00
H2       0.04565    0.25641    0.55255   1.00
H2       0.04676    0.29398    0.45615   1.00
H2       0.09672    0.18471    0.61958   1.00
H2       0.10712    0.35482    0.38617   1.00
H2       0.05146    0.20695    0.62975   1.00
H2       0.05794    0.34178    0.37851   1.00
H2       0.06104    0.18872    0.58261   1.00
H2       0.07332    0.35758    0.42498   1.00
C4       0.25114    0.74535    0.48025   1.00
C4       0.25015    0.74415    0.52191   1.00
C3       0.28634    0.75144    0.45897   1.00
C3       0.28469    0.74486    0.54504   1.00
C3       0.21585    0.74036    0.45854   1.00
C3       0.21347    0.74212    0.54170   1.00
C2       0.25349    0.74585    0.39595   1.00
C2       0.24811    0.74368    0.60622   1.00
C3       0.28759    0.75151    0.41811   1.00
C3       0.28378    0.74483    0.58591   1.00
C3       0.21841    0.74040    0.41696   1.00
C3       0.21379    0.74236    0.58336   1.00
H1       0.31233    0.75646    0.47237   1.00
H1       0.31184    0.74503    0.53306   1.00
C5       0.17927    0.73574    0.47835   1.00
C5       0.17778    0.73968    0.51998   1.00
H1       0.31393    0.75590    0.40451   1.00
H1       0.30972    0.74553    0.60091   1.00
H1       0.19399    0.73668    0.40052   1.00
H1       0.18829    0.74121    0.59848   1.00
C6       0.14286    0.72635    0.45515   1.00
C6       0.13907    0.74174    0.54119   1.00
H2       0.14980    0.70417    0.43345   1.00
H2       0.14045    0.76474    0.56310   1.00
H2       0.12119    0.71142    0.47286   1.00
H2       0.11589    0.75230    0.52228   1.00
C6       0.12363    0.76321    0.43606   1.00
C6       0.12635    0.70176    0.55942   1.00
H2       0.14626    0.78146    0.42292   1.00
H2       0.15135    0.68816    0.57383   1.00
C6       0.09126    0.75624    0.40459   1.00
C6       0.09163    0.70219    0.58911   1.00
H2       0.11116    0.78088    0.45949   1.00
H2       0.11877    0.68214    0.53546   1.00
C6       0.10806    0.73673    0.36735   1.00
C6       0.10236    0.72439    0.62708   1.00
C6       0.05747    0.73092    0.42074   1.00
C6       0.05448    0.72059    0.57107   1.00
C6       0.07408    0.79637    0.39245   1.00
C6       0.08191    0.65943    0.60054   1.00
H2       0.13242    0.75358    0.35558   1.00
H2       0.12886    0.71250    0.64020   1.00
H2       0.11851    0.70732    0.37330   1.00
H2       0.10723    0.75529    0.62154   1.00
H2       0.08590    0.73447    0.34459   1.00
H2       0.07902    0.72221    0.64863   1.00
H2       0.03381    0.72856    0.39955   1.00
H2       0.02973    0.71822    0.59098   1.00
H2       0.06744    0.70142    0.42725   1.00
H2       0.05890    0.75149    0.56494   1.00
H2       0.04565    0.74359    0.44745   1.00
H2       0.04676    0.70602    0.54385   1.00
H2       0.09672    0.81529    0.38042   1.00
H2       0.10712    0.64518    0.61383   1.00
H2       0.05146    0.79305    0.37025   1.00
H2       0.05794    0.65822    0.62149   1.00
H2       0.06104    0.81128    0.41739   1.00
H2       0.07332    0.64242    0.57502   1.00
C4       0.24535    0.98025    0.25114   1.00
C4       0.24415    1.02191    0.25015   1.00
C3       0.25144    0.95897    0.28634   1.00
C3       0.24486    1.04504    0.28469   1.00
C3       0.24036    0.95854    0.21585   1.00
C3       0.24212    1.04170    0.21347   1.00
C2       0.24585    0.89595    0.25349   1.00
C2       0.24368    1.10622    0.24811   1.00
C3       0.25151    0.91811    0.28759   1.00
C3       0.24483    1.08591    0.28378   1.00
C3       0.24040    0.91696    0.21841   1.00
C3       0.24236    1.08336    0.21379   1.00
H1       0.25646    0.97237    0.31233   1.00
H1       0.24503    1.03306    0.31184   1.00
C5       0.23574    0.97835    0.17927   1.00
C5       0.23968    1.01998    0.17778   1.00
H1       0.25590    0.90451    0.31393   1.00
H1       0.24553    1.10091    0.30972   1.00
H1       0.23668    0.90052    0.19399   1.00
H1       0.24121    1.09848    0.18829   1.00
C6       0.22635    0.95515    0.14286   1.00
C6       0.24174    1.04119    0.13907   1.00
H2       0.20417    0.93345    0.14980   1.00
H2       0.26474    1.06310    0.14045   1.00
H2       0.21142    0.97286    0.12119   1.00
H2       0.25230    1.02228    0.11589   1.00
C6       0.26321    0.93606    0.12363   1.00
C6       0.20176    1.05942    0.12635   1.00
H2       0.28146    0.92292    0.14626   1.00
H2       0.18816    1.07383    0.15135   1.00
C6       0.25624    0.90459    0.09126   1.00
C6       0.20219    1.08911    0.09163   1.00
H2       0.28088    0.95949    0.11116   1.00
H2       0.18214    1.03546    0.11877   1.00
C6       0.23673    0.86735    0.10806   1.00
C6       0.22439    1.12708    0.10236   1.00
C6       0.23092    0.92074    0.05747   1.00
C6       0.22059    1.07107    0.05448   1.00
C6       0.29637    0.89245    0.07408   1.00
C6       0.15943    1.10054    0.08191   1.00
H2       0.25358    0.85558    0.13242   1.00
H2       0.21250    1.14020    0.12886   1.00
H2       0.20732    0.87330    0.11851   1.00
H2       0.25529    1.12154    0.10723   1.00
H2       0.23447    0.84459    0.08590   1.00
H2       0.22221    1.14863    0.07902   1.00
H2       0.22856    0.89955    0.03381   1.00
H2       0.21822    1.09098    0.02973   1.00
H2       0.20142    0.92725    0.06744   1.00
H2       0.25149    1.06494    0.05890   1.00
H2       0.24359    0.94745    0.04565   1.00
H2       0.20602    1.04385    0.04676   1.00
H2       0.31529    0.88042    0.09672   1.00
H2       0.14518    1.11383    0.10712   1.00
H2       0.29305    0.87025    0.05146   1.00
H2       0.15822    1.12149    0.05794   1.00
H2       0.31128    0.91739    0.06104   1.00
H2       0.14242    1.07502    0.07332   1.00
C4       0.01975    0.75114    0.25465   1.00
C4       -0.02191   0.75015    0.25585   1.00
C3       0.04103    0.78634    0.24856   1.00
C3       -0.04504   0.78469    0.25514   1.00
C3       0.04146    0.71585    0.25964   1.00
C3       -0.04170   0.71347    0.25788   1.00
C2       0.10405    0.75349    0.25415   1.00
C2       -0.10622   0.74811    0.25632   1.00
C3       0.08189    0.78759    0.24849   1.00
C3       -0.08591   0.78378    0.25517   1.00
C3       0.08304    0.71841    0.25960   1.00
C3       -0.08336   0.71379    0.25764   1.00
H1       0.02763    0.81233    0.24354   1.00
H1       -0.03306   0.81184    0.25497   1.00
C5       0.02165    0.67927    0.26426   1.00
C5       -0.01998   0.67778    0.26032   1.00
H1       0.09549    0.81393    0.24410   1.00
H1       -0.10091   0.80972    0.25447   1.00
H1       0.09948    0.69399    0.26332   1.00
H1       -0.09848   0.68829    0.25879   1.00
C6       0.04485    0.64286    0.27365   1.00
C6       -0.04119   0.63907    0.25826   1.00
H2       0.06655    0.64980    0.29583   1.00
H2       -0.06310   0.64045    0.23526   1.00
H2       0.02714    0.62119    0.28858   1.00
H2       -0.02228   0.61589    0.24770   1.00
C6       0.06394    0.62363    0.23679   1.00
C6       -0.05942   0.62635    0.29824   1.00
H2       0.07708    0.64626    0.21854   1.00
H2       -0.07383   0.65135    0.31184   1.00
C6       0.09541    0.59126    0.24376   1.00
C6       -0.08911   0.59163    0.29781   1.00
H2       0.04051    0.61116    0.21912   1.00
H2       -0.03546   0.61877    0.31786   1.00
C6       0.13265    0.60806    0.26327   1.00
C6       -0.12708   0.60236    0.27561   1.00
C6       0.07926    0.55747    0.26908   1.00
C6       -0.07107   0.55448    0.27941   1.00
C6       0.10755    0.57408    0.20363   1.00
C6       -0.10054   0.58191    0.34057   1.00
H2       0.14442    0.63242    0.24642   1.00
H2       -0.14020   0.62886    0.28750   1.00
H2       0.12670    0.61851    0.29268   1.00
H2       -0.12154   0.60723    0.24471   1.00
H2       0.15541    0.58590    0.26553   1.00
H2       -0.14863   0.57902    0.27779   1.00
H2       0.10045    0.53381    0.27144   1.00
H2       -0.09098   0.52973    0.28178   1.00
H2       0.07275    0.56744    0.29858   1.00
H2       -0.06494   0.55890    0.24851   1.00
H2       0.05255    0.54565    0.25641   1.00
H2       -0.04385   0.54676    0.29398   1.00
H2       0.11958    0.59672    0.18471   1.00
H2       -0.11383   0.60712    0.35482   1.00
H2       0.12975    0.55146    0.20695   1.00
H2       -0.12149   0.55794    0.34178   1.00
H2       0.08261    0.56104    0.18872   1.00
H2       -0.07502   0.57332    0.35758   1.00
C4       0.48025    0.75114    0.24535   1.00
C4       0.52191    0.75015    0.24415   1.00
C3       0.45897    0.78634    0.25144   1.00
C3       0.54504    0.78469    0.24486   1.00
C3       0.45854    0.71585    0.24036   1.00
C3       0.54170    0.71347    0.24212   1.00
C2       0.39595    0.75349    0.24585   1.00
C2       0.60622    0.74811    0.24368   1.00
C3       0.41811    0.78759    0.25151   1.00
C3       0.58591    0.78378    0.24483   1.00
C3       0.41696    0.71841    0.24040   1.00
C3       0.58336    0.71379    0.24236   1.00
H1       0.47237    0.81233    0.25646   1.00
H1       0.53306    0.81184    0.24503   1.00
C5       0.47835    0.67927    0.23574   1.00
C5       0.51998    0.67778    0.23968   1.00
H1       0.40451    0.81393    0.25590   1.00
H1       0.60091    0.80972    0.24553   1.00
H1       0.40052    0.69399    0.23668   1.00
H1       0.59848    0.68829    0.24121   1.00
C6       0.45515    0.64286    0.22635   1.00
C6       0.54119    0.63907    0.24174   1.00
H2       0.43345    0.64980    0.20417   1.00
H2       0.56310    0.64045    0.26474   1.00
H2       0.47286    0.62119    0.21142   1.00
H2       0.52228    0.61589    0.25230   1.00
C6       0.43606    0.62363    0.26321   1.00
C6       0.55942    0.62635    0.20176   1.00
H2       0.42292    0.64626    0.28146   1.00
H2       0.57383    0.65135    0.18816   1.00
C6       0.40459    0.59126    0.25624   1.00
C6       0.58911    0.59163    0.20219   1.00
H2       0.45949    0.61116    0.28088   1.00
H2       0.53546    0.61877    0.18214   1.00
C6       0.36735    0.60806    0.23673   1.00
C6       0.62708    0.60236    0.22439   1.00
C6       0.42074    0.55747    0.23092   1.00
C6       0.57107    0.55448    0.22059   1.00
C6       0.39245    0.57408    0.29637   1.00
C6       0.60054    0.58191    0.15943   1.00
H2       0.35558    0.63242    0.25358   1.00
H2       0.64020    0.62886    0.21250   1.00
H2       0.37330    0.61851    0.20732   1.00
H2       0.62154    0.60723    0.25529   1.00
H2       0.34459    0.58590    0.23447   1.00
H2       0.64863    0.57902    0.22221   1.00
H2       0.39955    0.53381    0.22856   1.00
H2       0.59098    0.52973    0.21822   1.00
H2       0.42725    0.56744    0.20142   1.00
H2       0.56494    0.55890    0.25149   1.00
H2       0.44745    0.54565    0.24359   1.00
H2       0.54385    0.54676    0.20602   1.00
H2       0.38042    0.59672    0.31529   1.00
H2       0.61383    0.60712    0.14518   1.00
H2       0.37025    0.55146    0.29305   1.00
H2       0.62149    0.55794    0.15822   1.00
H2       0.41739    0.56104    0.31128   1.00
H2       0.57502    0.57332    0.14242   1.00
C4       0.25465    0.51975    0.25114   1.00
C4       0.25585    0.47809    0.25015   1.00
C3       0.24856    0.54103    0.28634   1.00
C3       0.25514    0.45496    0.28469   1.00
C3       0.25964    0.54146    0.21585   1.00
C3       0.25788    0.45830    0.21347   1.00
C2       0.25415    0.60405    0.25349   1.00
C2       0.25632    0.39378    0.24811   1.00
C3       0.24849    0.58189    0.28759   1.00
C3       0.25517    0.41409    0.28378   1.00
C3       0.25960    0.58304    0.21841   1.00
C3       0.25764    0.41664    0.21379   1.00
H1       0.24354    0.52763    0.31233   1.00
H1       0.25497    0.46694    0.31184   1.00
C5       0.26426    0.52165    0.17927   1.00
C5       0.26032    0.48002    0.17778   1.00
H1       0.24410    0.59549    0.31393   1.00
H1       0.25447    0.39909    0.30972   1.00
H1       0.26332    0.59948    0.19399   1.00
H1       0.25879    0.40152    0.18829   1.00
C6       0.27365    0.54485    0.14286   1.00
C6       0.25826    0.45881    0.13907   1.00
H2       0.29583    0.56655    0.14980   1.00
H2       0.23526    0.43690    0.14045   1.00
H2       0.28858    0.52714    0.12119   1.00
H2       0.24770    0.47772    0.11589   1.00
C6       0.23679    0.56394    0.12363   1.00
C6       0.29824    0.44058    0.12635   1.00
H2       0.21854    0.57708    0.14626   1.00
H2       0.31184    0.42617    0.15135   1.00
C6       0.24376    0.59541    0.09126   1.00
C6       0.29781    0.41089    0.09163   1.00
H2       0.21912    0.54051    0.11116   1.00
H2       0.31786    0.46454    0.11877   1.00
C6       0.26327    0.63265    0.10806   1.00
C6       0.27561    0.37292    0.10236   1.00
C6       0.26908    0.57926    0.05747   1.00
C6       0.27941    0.42893    0.05448   1.00
C6       0.20363    0.60755    0.07408   1.00
C6       0.34057    0.39946    0.08191   1.00
H2       0.24642    0.64442    0.13242   1.00
H2       0.28750    0.35980    0.12886   1.00
H2       0.29268    0.62670    0.11851   1.00
H2       0.24471    0.37846    0.10723   1.00
H2       0.26553    0.65541    0.08590   1.00
H2       0.27779    0.35137    0.07902   1.00
H2       0.27144    0.60045    0.03381   1.00
H2       0.28178    0.40902    0.02973   1.00
H2       0.29858    0.57275    0.06744   1.00
H2       0.24851    0.43506    0.05890   1.00
H2       0.25641    0.55255    0.04565   1.00
H2       0.29398    0.45615    0.04676   1.00
H2       0.18471    0.61958    0.09672   1.00
H2       0.35482    0.38617    0.10712   1.00
H2       0.20695    0.62975    0.05146   1.00
H2       0.34178    0.37851    0.05794   1.00
H2       0.18872    0.58261    0.06104   1.00
H2       0.35758    0.42498    0.07332   1.00
C4       0.25114    0.75465    0.01975   1.00
C4       0.25015    0.75585    -0.02191   1.00
C3       0.28634    0.74856    0.04103   1.00
C3       0.28469    0.75514    -0.04504   1.00
C3       0.21585    0.75964    0.04146   1.00
C3       0.21347    0.75788    -0.04170   1.00
C2       0.25349    0.75415    0.10405   1.00
C2       0.24811    0.75632    -0.10622   1.00
C3       0.28759    0.74849    0.08189   1.00
C3       0.28378    0.75517    -0.08591   1.00
C3       0.21841    0.75960    0.08304   1.00
C3       0.21379    0.75764    -0.08336   1.00
H1       0.31233    0.74354    0.02763   1.00
H1       0.31184    0.75497    -0.03306   1.00
C5       0.17927    0.76426    0.02165   1.00
C5       0.17778    0.76032    -0.01998   1.00
H1       0.31393    0.74410    0.09549   1.00
H1       0.30972    0.75447    -0.10091   1.00
H1       0.19399    0.76332    0.09948   1.00
H1       0.18829    0.75879    -0.09848   1.00
C6       0.14286    0.77365    0.04485   1.00
C6       0.13907    0.75826    -0.04119   1.00
H2       0.14980    0.79583    0.06655   1.00
H2       0.14045    0.73526    -0.06310   1.00
H2       0.12119    0.78858    0.02714   1.00
H2       0.11589    0.74770    -0.02228   1.00
C6       0.12363    0.73679    0.06394   1.00
C6       0.12635    0.79824    -0.05942   1.00
H2       0.14626    0.71854    0.07708   1.00
H2       0.15135    0.81184    -0.07383   1.00
C6       0.09126    0.74376    0.09541   1.00
C6       0.09163    0.79781    -0.08911   1.00
H2       0.11116    0.71912    0.04051   1.00
H2       0.11877    0.81786    -0.03546   1.00
C6       0.10806    0.76327    0.13265   1.00
C6       0.10236    0.77561    -0.12708   1.00
C6       0.05747    0.76908    0.07926   1.00
C6       0.05448    0.77941    -0.07107   1.00
C6       0.07408    0.70363    0.10755   1.00
C6       0.08191    0.84057    -0.10054   1.00
H2       0.13242    0.74642    0.14442   1.00
H2       0.12886    0.78750    -0.14020   1.00
H2       0.11851    0.79268    0.12670   1.00
H2       0.10723    0.74471    -0.12154   1.00
H2       0.08590    0.76553    0.15541   1.00
H2       0.07902    0.77779    -0.14863   1.00
H2       0.03381    0.77144    0.10045   1.00
H2       0.02973    0.78178    -0.09098   1.00
H2       0.06744    0.79858    0.07275   1.00
H2       0.05890    0.74851    -0.06494   1.00
H2       0.04565    0.75641    0.05255   1.00
H2       0.04676    0.79398    -0.04385   1.00
H2       0.09672    0.68471    0.11958   1.00
H2       0.10712    0.85482    -0.11383   1.00
H2       0.05146    0.70695    0.12975   1.00
H2       0.05794    0.84178    -0.12149   1.00
H2       0.06104    0.68872    0.08261   1.00
H2       0.07332    0.85758    -0.07502   1.00
C4       0.75114    0.24535    0.48025   1.00
C4       0.75015    0.24415    0.52191   1.00
C3       0.78634    0.25144    0.45897   1.00
C3       0.78469    0.24486    0.54504   1.00
C3       0.71585    0.24036    0.45854   1.00
C3       0.71347    0.24212    0.54170   1.00
C2       0.75349    0.24585    0.39595   1.00
C2       0.74811    0.24368    0.60622   1.00
C3       0.78759    0.25151    0.41811   1.00
C3       0.78378    0.24483    0.58591   1.00
C3       0.71841    0.24040    0.41696   1.00
C3       0.71379    0.24236    0.58336   1.00
H1       0.81233    0.25646    0.47237   1.00
H1       0.81184    0.24503    0.53306   1.00
C5       0.67927    0.23574    0.47835   1.00
C5       0.67778    0.23968    0.51998   1.00
H1       0.81393    0.25590    0.40451   1.00
H1       0.80972    0.24553    0.60091   1.00
H1       0.69399    0.23668    0.40052   1.00
H1       0.68829    0.24121    0.59848   1.00
C6       0.64286    0.22635    0.45515   1.00
C6       0.63907    0.24174    0.54119   1.00
H2       0.64980    0.20417    0.43345   1.00
H2       0.64045    0.26474    0.56310   1.00
H2       0.62119    0.21142    0.47286   1.00
H2       0.61589    0.25230    0.52228   1.00
C6       0.62363    0.26321    0.43606   1.00
C6       0.62635    0.20176    0.55942   1.00
H2       0.64626    0.28146    0.42292   1.00
H2       0.65135    0.18816    0.57383   1.00
C6       0.59126    0.25624    0.40459   1.00
C6       0.59163    0.20219    0.58911   1.00
H2       0.61116    0.28088    0.45949   1.00
H2       0.61877    0.18214    0.53546   1.00
C6       0.60806    0.23673    0.36735   1.00
C6       0.60236    0.22439    0.62708   1.00
C6       0.55747    0.23092    0.42074   1.00
C6       0.55448    0.22059    0.57107   1.00
C6       0.57408    0.29637    0.39245   1.00
C6       0.58191    0.15943    0.60054   1.00
H2       0.63242    0.25358    0.35558   1.00
H2       0.62886    0.21250    0.64020   1.00
H2       0.61851    0.20732    0.37330   1.00
H2       0.60723    0.25529    0.62154   1.00
H2       0.58590    0.23447    0.34459   1.00
H2       0.57902    0.22221    0.64863   1.00
H2       0.53381    0.22856    0.39955   1.00
H2       0.52973    0.21822    0.59098   1.00
H2       0.56744    0.20142    0.42725   1.00
H2       0.55890    0.25149    0.56494   1.00
H2       0.54565    0.24359    0.44745   1.00
H2       0.54676    0.20602    0.54385   1.00
H2       0.59672    0.31529    0.38042   1.00
H2       0.60712    0.14518    0.61383   1.00
H2       0.55146    0.29305    0.37025   1.00
H2       0.55794    0.15822    0.62149   1.00
H2       0.56104    0.31128    0.41739   1.00
H2       0.57332    0.14242    0.57502   1.00
C4       0.74535    0.48025    0.25114   1.00
C4       0.74415    0.52191    0.25015   1.00
C3       0.75144    0.45897    0.28634   1.00
C3       0.74486    0.54504    0.28469   1.00
C3       0.74036    0.45854    0.21585   1.00
C3       0.74212    0.54170    0.21347   1.00
C2       0.74585    0.39595    0.25349   1.00
C2       0.74368    0.60622    0.24811   1.00
C3       0.75151    0.41811    0.28759   1.00
C3       0.74483    0.58591    0.28378   1.00
C3       0.74040    0.41696    0.21841   1.00
C3       0.74236    0.58336    0.21379   1.00
H1       0.75646    0.47237    0.31233   1.00
H1       0.74503    0.53306    0.31184   1.00
C5       0.73574    0.47835    0.17927   1.00
C5       0.73968    0.51998    0.17778   1.00
H1       0.75590    0.40451    0.31393   1.00
H1       0.74553    0.60091    0.30972   1.00
H1       0.73668    0.40052    0.19399   1.00
H1       0.74121    0.59848    0.18829   1.00
C6       0.72635    0.45515    0.14286   1.00
C6       0.74174    0.54119    0.13907   1.00
H2       0.70417    0.43345    0.14980   1.00
H2       0.76474    0.56310    0.14045   1.00
H2       0.71142    0.47286    0.12119   1.00
H2       0.75230    0.52228    0.11589   1.00
C6       0.76321    0.43606    0.12363   1.00
C6       0.70176    0.55942    0.12635   1.00
H2       0.78146    0.42292    0.14626   1.00
H2       0.68816    0.57383    0.15135   1.00
C6       0.75624    0.40459    0.09126   1.00
C6       0.70219    0.58911    0.09163   1.00
H2       0.78088    0.45949    0.11116   1.00
H2       0.68214    0.53546    0.11877   1.00
C6       0.73673    0.36735    0.10806   1.00
C6       0.72439    0.62708    0.10236   1.00
C6       0.73092    0.42074    0.05747   1.00
C6       0.72059    0.57107    0.05448   1.00
C6       0.79637    0.39245    0.07408   1.00
C6       0.65943    0.60054    0.08191   1.00
H2       0.75358    0.35558    0.13242   1.00
H2       0.71250    0.64020    0.12886   1.00
H2       0.70732    0.37330    0.11851   1.00
H2       0.75529    0.62154    0.10723   1.00
H2       0.73447    0.34459    0.08590   1.00
H2       0.72221    0.64863    0.07902   1.00
H2       0.72856    0.39955    0.03381   1.00
H2       0.71822    0.59098    0.02973   1.00
H2       0.70142    0.42725    0.06744   1.00
H2       0.75149    0.56494    0.05890   1.00
H2       0.74359    0.44745    0.04565   1.00
H2       0.70602    0.54385    0.04676   1.00
H2       0.81529    0.38042    0.09672   1.00
H2       0.64518    0.61383    0.10712   1.00
H2       0.79305    0.37025    0.05146   1.00
H2       0.65822    0.62149    0.05794   1.00
H2       0.81128    0.41739    0.06104   1.00
H2       0.64242    0.57502    0.07332   1.00
C4       0.51975    0.25114    0.25465   1.00
C4       0.47809    0.25015    0.25585   1.00
C3       0.54103    0.28634    0.24856   1.00
C3       0.45496    0.28469    0.25514   1.00
C3       0.54146    0.21585    0.25964   1.00
C3       0.45830    0.21347    0.25788   1.00
C2       0.60405    0.25349    0.25415   1.00
C2       0.39378    0.24811    0.25632   1.00
C3       0.58189    0.28759    0.24849   1.00
C3       0.41409    0.28378    0.25517   1.00
C3       0.58304    0.21841    0.25960   1.00
C3       0.41664    0.21379    0.25764   1.00
H1       0.52763    0.31233    0.24354   1.00
H1       0.46694    0.31184    0.25497   1.00
C5       0.52165    0.17927    0.26426   1.00
C5       0.48002    0.17778    0.26032   1.00
H1       0.59549    0.31393    0.24410   1.00
H1       0.39909    0.30972    0.25447   1.00
H1       0.59948    0.19399    0.26332   1.00
H1       0.40152    0.18829    0.25879   1.00
C6       0.54485    0.14286    0.27365   1.00
C6       0.45881    0.13907    0.25826   1.00
H2       0.56655    0.14980    0.29583   1.00
H2       0.43690    0.14045    0.23526   1.00
H2       0.52714    0.12119    0.28858   1.00
H2       0.47772    0.11589    0.24770   1.00
C6       0.56394    0.12363    0.23679   1.00
C6       0.44058    0.12635    0.29824   1.00
H2       0.57708    0.14626    0.21854   1.00
H2       0.42617    0.15135    0.31184   1.00
C6       0.59541    0.09126    0.24376   1.00
C6       0.41089    0.09163    0.29781   1.00
H2       0.54051    0.11116    0.21912   1.00
H2       0.46454    0.11877    0.31786   1.00
C6       0.63265    0.10806    0.26327   1.00
C6       0.37292    0.10236    0.27561   1.00
C6       0.57926    0.05747    0.26908   1.00
C6       0.42893    0.05448    0.27941   1.00
C6       0.60755    0.07408    0.20363   1.00
C6       0.39946    0.08191    0.34057   1.00
H2       0.64442    0.13242    0.24642   1.00
H2       0.35980    0.12886    0.28750   1.00
H2       0.62670    0.11851    0.29268   1.00
H2       0.37846    0.10723    0.24471   1.00
H2       0.65541    0.08590    0.26553   1.00
H2       0.35137    0.07902    0.27779   1.00
H2       0.60045    0.03381    0.27144   1.00
H2       0.40902    0.02973    0.28178   1.00
H2       0.57275    0.06744    0.29858   1.00
H2       0.43506    0.05890    0.24851   1.00
H2       0.55255    0.04565    0.25641   1.00
H2       0.45615    0.04676    0.29398   1.00
H2       0.61958    0.09672    0.18471   1.00
H2       0.38617    0.10712    0.35482   1.00
H2       0.62975    0.05146    0.20695   1.00
H2       0.37851    0.05794    0.34178   1.00
H2       0.58261    0.06104    0.18872   1.00
H2       0.42498    0.07332    0.35758   1.00
C4       0.98025    0.25114    0.24535   1.00
C4       1.02191    0.25015    0.24415   1.00
C3       0.95897    0.28634    0.25144   1.00
C3       1.04504    0.28469    0.24486   1.00
C3       0.95854    0.21585    0.24036   1.00
C3       1.04170    0.21347    0.24212   1.00
C2       0.89595    0.25349    0.24585   1.00
C2       1.10622    0.24811    0.24368   1.00
C3       0.91811    0.28759    0.25151   1.00
C3       1.08591    0.28378    0.24483   1.00
C3       0.91696    0.21841    0.24040   1.00
C3       1.08336    0.21379    0.24236   1.00
H1       0.97237    0.31233    0.25646   1.00
H1       1.03306    0.31184    0.24503   1.00
C5       0.97835    0.17927    0.23574   1.00
C5       1.01998    0.17778    0.23968   1.00
H1       0.90451    0.31393    0.25590   1.00
H1       1.10091    0.30972    0.24553   1.00
H1       0.90052    0.19399    0.23668   1.00
H1       1.09848    0.18829    0.24121   1.00
C6       0.95515    0.14286    0.22635   1.00
C6       1.04119    0.13907    0.24174   1.00
H2       0.93345    0.14980    0.20417   1.00
H2       1.06310    0.14045    0.26474   1.00
H2       0.97286    0.12119    0.21142   1.00
H2       1.02228    0.11589    0.25230   1.00
C6       0.93606    0.12363    0.26321   1.00
C6       1.05942    0.12635    0.20176   1.00
H2       0.92292    0.14626    0.28146   1.00
H2       1.07383    0.15135    0.18816   1.00
C6       0.90459    0.09126    0.25624   1.00
C6       1.08911    0.09163    0.20219   1.00
H2       0.95949    0.11116    0.28088   1.00
H2       1.03546    0.11877    0.18214   1.00
C6       0.86735    0.10806    0.23673   1.00
C6       1.12708    0.10236    0.22439   1.00
C6       0.92074    0.05747    0.23092   1.00
C6       1.07107    0.05448    0.22059   1.00
C6       0.89245    0.07408    0.29637   1.00
C6       1.10054    0.08191    0.15943   1.00
H2       0.85558    0.13242    0.25358   1.00
H2       1.14020    0.12886    0.21250   1.00
H2       0.87330    0.11851    0.20732   1.00
H2       1.12154    0.10723    0.25529   1.00
H2       0.84459    0.08590    0.23447   1.00
H2       1.14863    0.07902    0.22221   1.00
H2       0.89955    0.03381    0.22856   1.00
H2       1.09098    0.02973    0.21822   1.00
H2       0.92725    0.06744    0.20142   1.00
H2       1.06494    0.05890    0.25149   1.00
H2       0.94745    0.04565    0.24359   1.00
H2       1.04385    0.04676    0.20602   1.00
H2       0.88042    0.09672    0.31529   1.00
H2       1.11383    0.10712    0.14518   1.00
H2       0.87025    0.05146    0.29305   1.00
H2       1.12149    0.05794    0.15822   1.00
H2       0.91739    0.06104    0.31128   1.00
H2       1.07502    0.07332    0.14242   1.00
C4       0.75465    0.01975    0.25114   1.00
C4       0.75585    -0.02191   0.25015   1.00
C3       0.74856    0.04103    0.28634   1.00
C3       0.75514    -0.04504   0.28469   1.00
C3       0.75964    0.04146    0.21585   1.00
C3       0.75788    -0.04170   0.21347   1.00
C2       0.75415    0.10405    0.25349   1.00
C2       0.75632    -0.10622   0.24811   1.00
C3       0.74849    0.08189    0.28759   1.00
C3       0.75517    -0.08591   0.28378   1.00
C3       0.75960    0.08304    0.21841   1.00
C3       0.75764    -0.08336   0.21379   1.00
H1       0.74354    0.02763    0.31233   1.00
H1       0.75497    -0.03306   0.31184   1.00
C5       0.76426    0.02165    0.17927   1.00
C5       0.76032    -0.01998   0.17778   1.00
H1       0.74410    0.09549    0.31393   1.00
H1       0.75447    -0.10091   0.30972   1.00
H1       0.76332    0.09948    0.19399   1.00
H1       0.75879    -0.09848   0.18829   1.00
C6       0.77365    0.04485    0.14286   1.00
C6       0.75826    -0.04119   0.13907   1.00
H2       0.79583    0.06655    0.14980   1.00
H2       0.73526    -0.06310   0.14045   1.00
H2       0.78858    0.02714    0.12119   1.00
H2       0.74770    -0.02228   0.11589   1.00
C6       0.73679    0.06394    0.12363   1.00
C6       0.79824    -0.05942   0.12635   1.00
H2       0.71854    0.07708    0.14626   1.00
H2       0.81184    -0.07383   0.15135   1.00
C6       0.74376    0.09541    0.09126   1.00
C6       0.79781    -0.08911   0.09163   1.00
H2       0.71912    0.04051    0.11116   1.00
H2       0.81786    -0.03546   0.11877   1.00
C6       0.76327    0.13265    0.10806   1.00
C6       0.77561    -0.12708   0.10236   1.00
C6       0.76908    0.07926    0.05747   1.00
C6       0.77941    -0.07107   0.05448   1.00
C6       0.70363    0.10755    0.07408   1.00
C6       0.84057    -0.10054   0.08191   1.00
H2       0.74642    0.14442    0.13242   1.00
H2       0.78750    -0.14020   0.12886   1.00
H2       0.79268    0.12670    0.11851   1.00
H2       0.74471    -0.12154   0.10723   1.00
H2       0.76553    0.15541    0.08590   1.00
H2       0.77779    -0.14863   0.07902   1.00
H2       0.77144    0.10045    0.03381   1.00
H2       0.78178    -0.09098   0.02973   1.00
H2       0.79858    0.07275    0.06744   1.00
H2       0.74851    -0.06494   0.05890   1.00
H2       0.75641    0.05255    0.04565   1.00
H2       0.79398    -0.04385   0.04676   1.00
H2       0.68471    0.11958    0.09672   1.00
H2       0.85482    -0.11383   0.10712   1.00
H2       0.70695    0.12975    0.05146   1.00
H2       0.84178    -0.12149   0.05794   1.00
H2       0.68872    0.08261    0.06104   1.00
H2       0.85758    -0.07502   0.07332   1.00
C4       0.75114    0.25465    0.01975   1.00
C4       0.75015    0.25585    -0.02191   1.00
C3       0.78634    0.24856    0.04103   1.00
C3       0.78469    0.25514    -0.04504   1.00
C3       0.71585    0.25964    0.04146   1.00
C3       0.71347    0.25788    -0.04170   1.00
C2       0.75349    0.25415    0.10405   1.00
C2       0.74811    0.25632    -0.10622   1.00
C3       0.78759    0.24849    0.08189   1.00
C3       0.78378    0.25517    -0.08591   1.00
C3       0.71841    0.25960    0.08304   1.00
C3       0.71379    0.25764    -0.08336   1.00
H1       0.81233    0.24354    0.02763   1.00
H1       0.81184    0.25497    -0.03306   1.00
C5       0.67927    0.26426    0.02165   1.00
C5       0.67778    0.26032    -0.01998   1.00
H1       0.81393    0.24410    0.09549   1.00
H1       0.80972    0.25447    -0.10091   1.00
H1       0.69399    0.26332    0.09948   1.00
H1       0.68829    0.25879    -0.09848   1.00
C6       0.64286    0.27365    0.04485   1.00
C6       0.63907    0.25826    -0.04119   1.00
H2       0.64980    0.29583    0.06655   1.00
H2       0.64045    0.23526    -0.06310   1.00
H2       0.62119    0.28858    0.02714   1.00
H2       0.61589    0.24770    -0.02228   1.00
C6       0.62363    0.23679    0.06394   1.00
C6       0.62635    0.29824    -0.05942   1.00
H2       0.64626    0.21854    0.07708   1.00
H2       0.65135    0.31184    -0.07383   1.00
C6       0.59126    0.24376    0.09541   1.00
C6       0.59163    0.29781    -0.08911   1.00
H2       0.61116    0.21912    0.04051   1.00
H2       0.61877    0.31786    -0.03546   1.00
C6       0.60806    0.26327    0.13265   1.00
C6       0.60236    0.27561    -0.12708   1.00
C6       0.55747    0.26908    0.07926   1.00
C6       0.55448    0.27941    -0.07107   1.00
C6       0.57408    0.20363    0.10755   1.00
C6       0.58191    0.34057    -0.10054   1.00
H2       0.63242    0.24642    0.14442   1.00
H2       0.62886    0.28750    -0.14020   1.00
H2       0.61851    0.29268    0.12670   1.00
H2       0.60723    0.24471    -0.12154   1.00
H2       0.58590    0.26553    0.15541   1.00
H2       0.57902    0.27779    -0.14863   1.00
H2       0.53381    0.27144    0.10045   1.00
H2       0.52973    0.28178    -0.09098   1.00
H2       0.56744    0.29858    0.07275   1.00
H2       0.55890    0.24851    -0.06494   1.00
H2       0.54565    0.25641    0.05255   1.00
H2       0.54676    0.29398    -0.04385   1.00
H2       0.59672    0.18471    0.11958   1.00
H2       0.60712    0.35482    -0.11383   1.00
H2       0.55146    0.20695    0.12975   1.00
H2       0.55794    0.34178    -0.12149   1.00
H2       0.56104    0.18872    0.08261   1.00
H2       0.57332    0.35758    -0.07502   1.00
C4       0.91614    0.91035    1.14525   1.00
C4       0.91515    0.90915    1.18691   1.00
C3       0.95134    0.91644    1.12397   1.00
C3       0.94969    0.90986    1.21004   1.00
C3       0.88085    0.90536    1.12354   1.00
C3       0.87847    0.90712    1.20670   1.00
C2       0.91849    0.91085    1.06095   1.00
C2       0.91311    0.90868    1.27122   1.00
C3       0.95259    0.91651    1.08311   1.00
C3       0.94878    0.90983    1.25091   1.00
C3       0.88341    0.90540    1.08196   1.00
C3       0.87879    0.90736    1.24836   1.00
H1       0.97733    0.92146    1.13737   1.00
H1       0.97684    0.91003    1.19806   1.00
C5       0.84427    0.90074    1.14335   1.00
C5       0.84278    0.90468    1.18498   1.00
H1       0.97893    0.92090    1.06951   1.00
H1       0.97472    0.91053    1.26591   1.00
H1       0.85899    0.90168    1.06552   1.00
H1       0.85329    0.90621    1.26348   1.00
C6       0.80786    0.89135    1.12015   1.00
C6       0.80407    0.90674    1.20619   1.00
H2       0.81480    0.86917    1.09845   1.00
H2       0.80545    0.92974    1.22810   1.00
H2       0.78619    0.87642    1.13786   1.00
H2       0.78089    0.91730    1.18728   1.00
C6       0.78863    0.92821    1.10106   1.00
C6       0.79135    0.86676    1.22442   1.00
H2       0.81126    0.94646    1.08792   1.00
H2       0.81635    0.85316    1.23883   1.00
C6       0.75626    0.92124    1.06959   1.00
C6       0.75663    0.86719    1.25411   1.00
H2       0.77616    0.94588    1.12449   1.00
H2       0.78377    0.84714    1.20046   1.00
C6       0.77306    0.90173    1.03235   1.00
C6       0.76736    0.88939    1.29208   1.00
C6       0.72247    0.89592    1.08574   1.00
C6       0.71948    0.88559    1.23607   1.00
C6       0.73908    0.96137    1.05745   1.00
C6       0.74691    0.82443    1.26554   1.00
H2       0.79742    0.91858    1.02058   1.00
H2       0.79386    0.87750    1.30520   1.00
H2       0.78351    0.87232    1.03830   1.00
H2       0.77223    0.92029    1.28654   1.00
H2       0.75090    0.89947    1.00959   1.00
H2       0.74402    0.88721    1.31363   1.00
H2       0.69881    0.89356    1.06455   1.00
H2       0.69473    0.88322    1.25598   1.00
H2       0.73244    0.86642    1.09225   1.00
H2       0.72390    0.91649    1.22994   1.00
H2       0.71065    0.90859    1.11245   1.00
H2       0.71176    0.87102    1.20885   1.00
H2       0.76172    0.98029    1.04542   1.00
H2       0.77212    0.81018    1.27883   1.00
H2       0.71646    0.95805    1.03525   1.00
H2       0.72294    0.82322    1.28649   1.00
H2       0.72604    0.97628    1.08239   1.00
H2       0.73832    0.80742    1.24002   1.00
C4       0.91035    1.14525    0.91614   1.00
C4       0.90915    1.18691    0.91515   1.00
C3       0.91644    1.12397    0.95134   1.00
C3       0.90986    1.21004    0.94969   1.00
C3       0.90536    1.12354    0.88085   1.00
C3       0.90712    1.20670    0.87847   1.00
C2       0.91085    1.06095    0.91849   1.00
C2       0.90868    1.27122    0.91311   1.00
C3       0.91651    1.08311    0.95259   1.00
C3       0.90983    1.25091    0.94878   1.00
C3       0.90540    1.08196    0.88341   1.00
C3       0.90736    1.24836    0.87879   1.00
H1       0.92146    1.13737    0.97733   1.00
H1       0.91003    1.19806    0.97684   1.00
C5       0.90074    1.14335    0.84427   1.00
C5       0.90468    1.18498    0.84278   1.00
H1       0.92090    1.06951    0.97893   1.00
H1       0.91053    1.26591    0.97472   1.00
H1       0.90168    1.06552    0.85899   1.00
H1       0.90621    1.26348    0.85329   1.00
C6       0.89135    1.12015    0.80786   1.00
C6       0.90674    1.20619    0.80407   1.00
H2       0.86917    1.09845    0.81480   1.00
H2       0.92974    1.22810    0.80545   1.00
H2       0.87642    1.13786    0.78619   1.00
H2       0.91730    1.18728    0.78089   1.00
C6       0.92821    1.10106    0.78863   1.00
C6       0.86676    1.22442    0.79135   1.00
H2       0.94646    1.08792    0.81126   1.00
H2       0.85316    1.23883    0.81635   1.00
C6       0.92124    1.06959    0.75626   1.00
C6       0.86719    1.25411    0.75663   1.00
H2       0.94588    1.12449    0.77616   1.00
H2       0.84714    1.20046    0.78377   1.00
C6       0.90173    1.03235    0.77306   1.00
C6       0.88939    1.29208    0.76736   1.00
C6       0.89592    1.08574    0.72247   1.00
C6       0.88559    1.23607    0.71948   1.00
C6       0.96137    1.05745    0.73908   1.00
C6       0.82443    1.26554    0.74691   1.00
H2       0.91858    1.02058    0.79742   1.00
H2       0.87750    1.30520    0.79386   1.00
H2       0.87232    1.03830    0.78351   1.00
H2       0.92029    1.28654    0.77223   1.00
H2       0.89947    1.00959    0.75090   1.00
H2       0.88721    1.31363    0.74402   1.00
H2       0.89356    1.06455    0.69881   1.00
H2       0.88322    1.25598    0.69473   1.00
H2       0.86642    1.09225    0.73244   1.00
H2       0.91649    1.22994    0.72390   1.00
H2       0.90859    1.11245    0.71065   1.00
H2       0.87102    1.20885    0.71176   1.00
H2       0.98029    1.04542    0.76172   1.00
H2       0.81018    1.27883    0.77212   1.00
H2       0.95805    1.03525    0.71646   1.00
H2       0.82322    1.28649    0.72294   1.00
H2       0.97628    1.08239    0.72604   1.00
H2       0.80742    1.24002    0.73832   1.00
C4       0.68475    0.91614    0.91965   1.00
C4       0.64309    0.91515    0.92085   1.00
C3       0.70603    0.95134    0.91356   1.00
C3       0.61996    0.94969    0.92014   1.00
C3       0.70646    0.88085    0.92464   1.00
C3       0.62330    0.87847    0.92288   1.00
C2       0.76905    0.91849    0.91915   1.00
C2       0.55878    0.91311    0.92132   1.00
C3       0.74689    0.95259    0.91349   1.00
C3       0.57909    0.94878    0.92017   1.00
C3       0.74804    0.88341    0.92460   1.00
C3       0.58164    0.87879    0.92264   1.00
H1       0.69263    0.97733    0.90854   1.00
H1       0.63194    0.97684    0.91997   1.00
C5       0.68665    0.84427    0.92926   1.00
C5       0.64502    0.84278    0.92532   1.00
H1       0.76049    0.97893    0.90910   1.00
H1       0.56409    0.97472    0.91947   1.00
H1       0.76448    0.85899    0.92832   1.00
H1       0.56652    0.85329    0.92379   1.00
C6       0.70985    0.80786    0.93865   1.00
C6       0.62381    0.80407    0.92326   1.00
H2       0.73155    0.81480    0.96083   1.00
H2       0.60190    0.80545    0.90026   1.00
H2       0.69214    0.78619    0.95358   1.00
H2       0.64272    0.78089    0.91270   1.00
C6       0.72894    0.78863    0.90179   1.00
C6       0.60558    0.79135    0.96324   1.00
H2       0.74208    0.81126    0.88354   1.00
H2       0.59117    0.81635    0.97684   1.00
C6       0.76041    0.75626    0.90876   1.00
C6       0.57589    0.75663    0.96281   1.00
H2       0.70551    0.77616    0.88412   1.00
H2       0.62954    0.78377    0.98286   1.00
C6       0.79765    0.77306    0.92827   1.00
C6       0.53792    0.76736    0.94061   1.00
C6       0.74426    0.72247    0.93408   1.00
C6       0.59393    0.71948    0.94441   1.00
C6       0.77255    0.73908    0.86863   1.00
C6       0.56446    0.74691    1.00557   1.00
H2       0.80942    0.79742    0.91142   1.00
H2       0.52480    0.79386    0.95250   1.00
H2       0.79170    0.78351    0.95768   1.00
H2       0.54346    0.77223    0.90971   1.00
H2       0.82041    0.75090    0.93053   1.00
H2       0.51637    0.74402    0.94279   1.00
H2       0.76545    0.69881    0.93644   1.00
H2       0.57402    0.69473    0.94678   1.00
H2       0.73775    0.73244    0.96358   1.00
H2       0.60006    0.72390    0.91351   1.00
H2       0.71755    0.71065    0.92141   1.00
H2       0.62115    0.71176    0.95898   1.00
H2       0.78458    0.76172    0.84971   1.00
H2       0.55117    0.77212    1.01982   1.00
H2       0.79475    0.71646    0.87195   1.00
H2       0.54351    0.72294    1.00678   1.00
H2       0.74761    0.72604    0.85372   1.00
H2       0.58998    0.73832    1.02258   1.00
C4       1.14525    0.91614    0.91035   1.00
C4       1.18691    0.91515    0.90915   1.00
C3       1.12397    0.95134    0.91644   1.00
C3       1.21004    0.94969    0.90986   1.00
C3       1.12354    0.88085    0.90536   1.00
C3       1.20670    0.87847    0.90712   1.00
C2       1.06095    0.91849    0.91085   1.00
C2       1.27122    0.91311    0.90868   1.00
C3       1.08311    0.95259    0.91651   1.00
C3       1.25091    0.94878    0.90983   1.00
C3       1.08196    0.88341    0.90540   1.00
C3       1.24836    0.87879    0.90736   1.00
H1       1.13737    0.97733    0.92146   1.00
H1       1.19806    0.97684    0.91003   1.00
C5       1.14335    0.84427    0.90074   1.00
C5       1.18498    0.84278    0.90468   1.00
H1       1.06951    0.97893    0.92090   1.00
H1       1.26591    0.97472    0.91053   1.00
H1       1.06552    0.85899    0.90168   1.00
H1       1.26348    0.85329    0.90621   1.00
C6       1.12015    0.80786    0.89135   1.00
C6       1.20619    0.80407    0.90674   1.00
H2       1.09845    0.81480    0.86917   1.00
H2       1.22810    0.80545    0.92974   1.00
H2       1.13786    0.78619    0.87642   1.00
H2       1.18728    0.78089    0.91730   1.00
C6       1.10106    0.78863    0.92821   1.00
C6       1.22442    0.79135    0.86676   1.00
H2       1.08792    0.81126    0.94646   1.00
H2       1.23883    0.81635    0.85316   1.00
C6       1.06959    0.75626    0.92124   1.00
C6       1.25411    0.75663    0.86719   1.00
H2       1.12449    0.77616    0.94588   1.00
H2       1.20046    0.78377    0.84714   1.00
C6       1.03235    0.77306    0.90173   1.00
C6       1.29208    0.76736    0.88939   1.00
C6       1.08574    0.72247    0.89592   1.00
C6       1.23607    0.71948    0.88559   1.00
C6       1.05745    0.73908    0.96137   1.00
C6       1.26554    0.74691    0.82443   1.00
H2       1.02058    0.79742    0.91858   1.00
H2       1.30520    0.79386    0.87750   1.00
H2       1.03830    0.78351    0.87232   1.00
H2       1.28654    0.77223    0.92029   1.00
H2       1.00959    0.75090    0.89947   1.00
H2       1.31363    0.74402    0.88721   1.00
H2       1.06455    0.69881    0.89356   1.00
H2       1.25598    0.69473    0.88322   1.00
H2       1.09225    0.73244    0.86642   1.00
H2       1.22994    0.72390    0.91649   1.00
H2       1.11245    0.71065    0.90859   1.00
H2       1.20885    0.71176    0.87102   1.00
H2       1.04542    0.76172    0.98029   1.00
H2       1.27883    0.77212    0.81018   1.00
H2       1.03525    0.71646    0.95805   1.00
H2       1.28649    0.72294    0.82322   1.00
H2       1.08239    0.72604    0.97628   1.00
H2       1.24002    0.73832    0.80742   1.00
C4       0.91965    0.68475    0.91614   1.00
C4       0.92085    0.64309    0.91515   1.00
C3       0.91356    0.70603    0.95134   1.00
C3       0.92014    0.61996    0.94969   1.00
C3       0.92464    0.70646    0.88085   1.00
C3       0.92288    0.62330    0.87847   1.00
C2       0.91915    0.76905    0.91849   1.00
C2       0.92132    0.55878    0.91311   1.00
C3       0.91349    0.74689    0.95259   1.00
C3       0.92017    0.57909    0.94878   1.00
C3       0.92460    0.74804    0.88341   1.00
C3       0.92264    0.58164    0.87879   1.00
H1       0.90854    0.69263    0.97733   1.00
H1       0.91997    0.63194    0.97684   1.00
C5       0.92926    0.68665    0.84427   1.00
C5       0.92532    0.64502    0.84278   1.00
H1       0.90910    0.76049    0.97893   1.00
H1       0.91947    0.56409    0.97472   1.00
H1       0.92832    0.76448    0.85899   1.00
H1       0.92379    0.56652    0.85329   1.00
C6       0.93865    0.70985    0.80786   1.00
C6       0.92326    0.62381    0.80407   1.00
H2       0.96083    0.73155    0.81480   1.00
H2       0.90026    0.60190    0.80545   1.00
H2       0.95358    0.69214    0.78619   1.00
H2       0.91270    0.64272    0.78089   1.00
C6       0.90179    0.72894    0.78863   1.00
C6       0.96324    0.60558    0.79135   1.00
H2       0.88354    0.74208    0.81126   1.00
H2       0.97684    0.59117    0.81635   1.00
C6       0.90876    0.76041    0.75626   1.00
C6       0.96281    0.57589    0.75663   1.00
H2       0.88412    0.70551    0.77616   1.00
H2       0.98286    0.62954    0.78377   1.00
C6       0.92827    0.79765    0.77306   1.00
C6       0.94061    0.53792    0.76736   1.00
C6       0.93408    0.74426    0.72247   1.00
C6       0.94441    0.59393    0.71948   1.00
C6       0.86863    0.77255    0.73908   1.00
C6       1.00557    0.56446    0.74691   1.00
H2       0.91142    0.80942    0.79742   1.00
H2       0.95250    0.52480    0.79386   1.00
H2       0.95768    0.79170    0.78351   1.00
H2       0.90971    0.54346    0.77223   1.00
H2       0.93053    0.82041    0.75090   1.00
H2       0.94279    0.51637    0.74402   1.00
H2       0.93644    0.76545    0.69881   1.00
H2       0.94678    0.57402    0.69473   1.00
H2       0.96358    0.73775    0.73244   1.00
H2       0.91351    0.60006    0.72390   1.00
H2       0.92141    0.71755    0.71065   1.00
H2       0.95898    0.62115    0.71176   1.00
H2       0.84971    0.78458    0.76172   1.00
H2       1.01982    0.55117    0.77212   1.00
H2       0.87195    0.79475    0.71646   1.00
H2       1.00678    0.54351    0.72294   1.00
H2       0.85372    0.74761    0.72604   1.00
H2       1.02258    0.58998    0.73832   1.00
C4       0.91614    0.91965    0.68475   1.00
C4       0.91515    0.92085    0.64309   1.00
C3       0.95134    0.91356    0.70603   1.00
C3       0.94969    0.92014    0.61996   1.00
C3       0.88085    0.92464    0.70646   1.00
C3       0.87847    0.92288    0.62330   1.00
C2       0.91849    0.91915    0.76905   1.00
C2       0.91311    0.92132    0.55878   1.00
C3       0.95259    0.91349    0.74689   1.00
C3       0.94878    0.92017    0.57909   1.00
C3       0.88341    0.92460    0.74804   1.00
C3       0.87879    0.92264    0.58164   1.00
H1       0.97733    0.90854    0.69263   1.00
H1       0.97684    0.91997    0.63194   1.00
C5       0.84427    0.92926    0.68665   1.00
C5       0.84278    0.92532    0.64502   1.00
H1       0.97893    0.90910    0.76049   1.00
H1       0.97472    0.91947    0.56409   1.00
H1       0.85899    0.92832    0.76448   1.00
H1       0.85329    0.92379    0.56652   1.00
C6       0.80786    0.93865    0.70985   1.00
C6       0.80407    0.92326    0.62381   1.00
H2       0.81480    0.96083    0.73155   1.00
H2       0.80545    0.90026    0.60190   1.00
H2       0.78619    0.95358    0.69214   1.00
H2       0.78089    0.91270    0.64272   1.00
C6       0.78863    0.90179    0.72894   1.00
C6       0.79135    0.96324    0.60558   1.00
H2       0.81126    0.88354    0.74208   1.00
H2       0.81635    0.97684    0.59117   1.00
C6       0.75626    0.90876    0.76041   1.00
C6       0.75663    0.96281    0.57589   1.00
H2       0.77616    0.88412    0.70551   1.00
H2       0.78377    0.98286    0.62954   1.00
C6       0.77306    0.92827    0.79765   1.00
C6       0.76736    0.94061    0.53792   1.00
C6       0.72247    0.93408    0.74426   1.00
C6       0.71948    0.94441    0.59393   1.00
C6       0.73908    0.86863    0.77255   1.00
C6       0.74691    1.00557    0.56446   1.00
H2       0.79742    0.91142    0.80942   1.00
H2       0.79386    0.95250    0.52480   1.00
H2       0.78351    0.95768    0.79170   1.00
H2       0.77223    0.90971    0.54346   1.00
H2       0.75090    0.93053    0.82041   1.00
H2       0.74402    0.94279    0.51637   1.00
H2       0.69881    0.93644    0.76545   1.00
H2       0.69473    0.94678    0.57402   1.00
H2       0.73244    0.96358    0.73775   1.00
H2       0.72390    0.91351    0.60006   1.00
H2       0.71065    0.92141    0.71755   1.00
H2       0.71176    0.95898    0.62115   1.00
H2       0.76172    0.84971    0.78458   1.00
H2       0.77212    1.01982    0.55117   1.00
H2       0.71646    0.87195    0.79475   1.00
H2       0.72294    1.00678    0.54351   1.00
H2       0.72604    0.85372    0.74761   1.00
H2       0.73832    1.02258    0.58998   1.00
C4       0.41614    0.41035    1.14525   1.00
C4       0.41515    0.40915    1.18691   1.00
C3       0.45134    0.41644    1.12397   1.00
C3       0.44969    0.40986    1.21004   1.00
C3       0.38085    0.40536    1.12354   1.00
C3       0.37847    0.40712    1.20670   1.00
C2       0.41849    0.41085    1.06095   1.00
C2       0.41311    0.40868    1.27122   1.00
C3       0.45259    0.41651    1.08311   1.00
C3       0.44878    0.40983    1.25091   1.00
C3       0.38341    0.40540    1.08196   1.00
C3       0.37879    0.40736    1.24836   1.00
H1       0.47733    0.42146    1.13737   1.00
H1       0.47684    0.41003    1.19806   1.00
C5       0.34427    0.40074    1.14335   1.00
C5       0.34278    0.40468    1.18498   1.00
H1       0.47893    0.42090    1.06951   1.00
H1       0.47472    0.41053    1.26591   1.00
H1       0.35899    0.40168    1.06552   1.00
H1       0.35329    0.40621    1.26348   1.00
C6       0.30786    0.39135    1.12015   1.00
C6       0.30407    0.40674    1.20619   1.00
H2       0.31480    0.36917    1.09845   1.00
H2       0.30545    0.42974    1.22810   1.00
H2       0.28619    0.37642    1.13786   1.00
H2       0.28089    0.41730    1.18728   1.00
C6       0.28863    0.42821    1.10106   1.00
C6       0.29135    0.36676    1.22442   1.00
H2       0.31126    0.44646    1.08792   1.00
H2       0.31635    0.35316    1.23883   1.00
C6       0.25626    0.42124    1.06959   1.00
C6       0.25663    0.36719    1.25411   1.00
H2       0.27616    0.44588    1.12449   1.00
H2       0.28377    0.34714    1.20046   1.00
C6       0.27306    0.40173    1.03235   1.00
C6       0.26736    0.38939    1.29208   1.00
C6       0.22247    0.39592    1.08574   1.00
C6       0.21948    0.38559    1.23607   1.00
C6       0.23908    0.46137    1.05745   1.00
C6       0.24691    0.32443    1.26554   1.00
H2       0.29742    0.41858    1.02058   1.00
H2       0.29386    0.37750    1.30520   1.00
H2       0.28351    0.37232    1.03830   1.00
H2       0.27223    0.42029    1.28654   1.00
H2       0.25090    0.39947    1.00959   1.00
H2       0.24402    0.38721    1.31363   1.00
H2       0.19881    0.39356    1.06455   1.00
H2       0.19473    0.38322    1.25598   1.00
H2       0.23244    0.36642    1.09225   1.00
H2       0.22390    0.41649    1.22994   1.00
H2       0.21065    0.40859    1.11245   1.00
H2       0.21176    0.37102    1.20885   1.00
H2       0.26172    0.48029    1.04542   1.00
H2       0.27212    0.31018    1.27883   1.00
H2       0.21646    0.45805    1.03525   1.00
H2       0.22294    0.32322    1.28649   1.00
H2       0.22604    0.47628    1.08239   1.00
H2       0.23832    0.30742    1.24002   1.00
C4       0.41035    0.64525    0.91614   1.00
C4       0.40915    0.68691    0.91515   1.00
C3       0.41644    0.62397    0.95134   1.00
C3       0.40986    0.71004    0.94969   1.00
C3       0.40536    0.62354    0.88085   1.00
C3       0.40712    0.70670    0.87847   1.00
C2       0.41085    0.56095    0.91849   1.00
C2       0.40868    0.77122    0.91311   1.00
C3       0.41651    0.58311    0.95259   1.00
C3       0.40983    0.75091    0.94878   1.00
C3       0.40540    0.58196    0.88341   1.00
C3       0.40736    0.74836    0.87879   1.00
H1       0.42146    0.63737    0.97733   1.00
H1       0.41003    0.69806    0.97684   1.00
C5       0.40074    0.64335    0.84427   1.00
C5       0.40468    0.68498    0.84278   1.00
H1       0.42090    0.56951    0.97893   1.00
H1       0.41053    0.76591    0.97472   1.00
H1       0.40168    0.56552    0.85899   1.00
H1       0.40621    0.76348    0.85329   1.00
C6       0.39135    0.62015    0.80786   1.00
C6       0.40674    0.70619    0.80407   1.00
H2       0.36917    0.59845    0.81480   1.00
H2       0.42974    0.72810    0.80545   1.00
H2       0.37642    0.63786    0.78619   1.00
H2       0.41730    0.68728    0.78089   1.00
C6       0.42821    0.60106    0.78863   1.00
C6       0.36676    0.72442    0.79135   1.00
H2       0.44646    0.58792    0.81126   1.00
H2       0.35316    0.73883    0.81635   1.00
C6       0.42124    0.56959    0.75626   1.00
C6       0.36719    0.75411    0.75663   1.00
H2       0.44588    0.62449    0.77616   1.00
H2       0.34714    0.70046    0.78377   1.00
C6       0.40173    0.53235    0.77306   1.00
C6       0.38939    0.79208    0.76736   1.00
C6       0.39592    0.58574    0.72247   1.00
C6       0.38559    0.73607    0.71948   1.00
C6       0.46137    0.55745    0.73908   1.00
C6       0.32443    0.76554    0.74691   1.00
H2       0.41858    0.52058    0.79742   1.00
H2       0.37750    0.80520    0.79386   1.00
H2       0.37232    0.53830    0.78351   1.00
H2       0.42029    0.78654    0.77223   1.00
H2       0.39947    0.50959    0.75090   1.00
H2       0.38721    0.81363    0.74402   1.00
H2       0.39356    0.56455    0.69881   1.00
H2       0.38322    0.75598    0.69473   1.00
H2       0.36642    0.59225    0.73244   1.00
H2       0.41649    0.72994    0.72390   1.00
H2       0.40859    0.61245    0.71065   1.00
H2       0.37102    0.70885    0.71176   1.00
H2       0.48029    0.54542    0.76172   1.00
H2       0.31018    0.77883    0.77212   1.00
H2       0.45805    0.53525    0.71646   1.00
H2       0.32322    0.78649    0.72294   1.00
H2       0.47628    0.58239    0.72604   1.00
H2       0.30742    0.74002    0.73832   1.00
C4       0.18475    0.41614    0.91965   1.00
C4       0.14309    0.41515    0.92085   1.00
C3       0.20603    0.45134    0.91356   1.00
C3       0.11996    0.44969    0.92014   1.00
C3       0.20646    0.38085    0.92464   1.00
C3       0.12330    0.37847    0.92288   1.00
C2       0.26905    0.41849    0.91915   1.00
C2       0.05878    0.41311    0.92132   1.00
C3       0.24689    0.45259    0.91349   1.00
C3       0.07909    0.44878    0.92017   1.00
C3       0.24804    0.38341    0.92460   1.00
C3       0.08164    0.37879    0.92264   1.00
H1       0.19263    0.47733    0.90854   1.00
H1       0.13194    0.47684    0.91997   1.00
C5       0.18665    0.34427    0.92926   1.00
C5       0.14502    0.34278    0.92532   1.00
H1       0.26049    0.47893    0.90910   1.00
H1       0.06409    0.47472    0.91947   1.00
H1       0.26448    0.35899    0.92832   1.00
H1       0.06652    0.35329    0.92379   1.00
C6       0.20985    0.30786    0.93865   1.00
C6       0.12381    0.30407    0.92326   1.00
H2       0.23155    0.31480    0.96083   1.00
H2       0.10190    0.30545    0.90026   1.00
H2       0.19214    0.28619    0.95358   1.00
H2       0.14272    0.28089    0.91270   1.00
C6       0.22894    0.28863    0.90179   1.00
C6       0.10558    0.29135    0.96324   1.00
H2       0.24208    0.31126    0.88354   1.00
H2       0.09117    0.31635    0.97684   1.00
C6       0.26041    0.25626    0.90876   1.00
C6       0.07589    0.25663    0.96281   1.00
H2       0.20551    0.27616    0.88412   1.00
H2       0.12954    0.28377    0.98286   1.00
C6       0.29765    0.27306    0.92827   1.00
C6       0.03792    0.26736    0.94061   1.00
C6       0.24426    0.22247    0.93408   1.00
C6       0.09393    0.21948    0.94441   1.00
C6       0.27255    0.23908    0.86863   1.00
C6       0.06446    0.24691    1.00557   1.00
H2       0.30942    0.29742    0.91142   1.00
H2       0.02480    0.29386    0.95250   1.00
H2       0.29170    0.28351    0.95768   1.00
H2       0.04346    0.27223    0.90971   1.00
H2       0.32041    0.25090    0.93053   1.00
H2       0.01637    0.24402    0.94279   1.00
H2       0.26545    0.19881    0.93644   1.00
H2       0.07402    0.19473    0.94678   1.00
H2       0.23775    0.23244    0.96358   1.00
H2       0.10006    0.22390    0.91351   1.00
H2       0.21755    0.21065    0.92141   1.00
H2       0.12115    0.21176    0.95898   1.00
H2       0.28458    0.26172    0.84971   1.00
H2       0.05117    0.27212    1.01982   1.00
H2       0.29475    0.21646    0.87195   1.00
H2       0.04351    0.22294    1.00678   1.00
H2       0.24761    0.22604    0.85372   1.00
H2       0.08998    0.23832    1.02258   1.00
C4       0.64525    0.41614    0.91035   1.00
C4       0.68691    0.41515    0.90915   1.00
C3       0.62397    0.45134    0.91644   1.00
C3       0.71004    0.44969    0.90986   1.00
C3       0.62354    0.38085    0.90536   1.00
C3       0.70670    0.37847    0.90712   1.00
C2       0.56095    0.41849    0.91085   1.00
C2       0.77122    0.41311    0.90868   1.00
C3       0.58311    0.45259    0.91651   1.00
C3       0.75091    0.44878    0.90983   1.00
C3       0.58196    0.38341    0.90540   1.00
C3       0.74836    0.37879    0.90736   1.00
H1       0.63737    0.47733    0.92146   1.00
H1       0.69806    0.47684    0.91003   1.00
C5       0.64335    0.34427    0.90074   1.00
C5       0.68498    0.34278    0.90468   1.00
H1       0.56951    0.47893    0.92090   1.00
H1       0.76591    0.47472    0.91053   1.00
H1       0.56552    0.35899    0.90168   1.00
H1       0.76348    0.35329    0.90621   1.00
C6       0.62015    0.30786    0.89135   1.00
C6       0.70619    0.30407    0.90674   1.00
H2       0.59845    0.31480    0.86917   1.00
H2       0.72810    0.30545    0.92974   1.00
H2       0.63786    0.28619    0.87642   1.00
H2       0.68728    0.28089    0.91730   1.00
C6       0.60106    0.28863    0.92821   1.00
C6       0.72442    0.29135    0.86676   1.00
H2       0.58792    0.31126    0.94646   1.00
H2       0.73883    0.31635    0.85316   1.00
C6       0.56959    0.25626    0.92124   1.00
C6       0.75411    0.25663    0.86719   1.00
H2       0.62449    0.27616    0.94588   1.00
H2       0.70046    0.28377    0.84714   1.00
C6       0.53235    0.27306    0.90173   1.00
C6       0.79208    0.26736    0.88939   1.00
C6       0.58574    0.22247    0.89592   1.00
C6       0.73607    0.21948    0.88559   1.00
C6       0.55745    0.23908    0.96137   1.00
C6       0.76554    0.24691    0.82443   1.00
H2       0.52058    0.29742    0.91858   1.00
H2       0.80520    0.29386    0.87750   1.00
H2       0.53830    0.28351    0.87232   1.00
H2       0.78654    0.27223    0.92029   1.00
H2       0.50959    0.25090    0.89947   1.00
H2       0.81363    0.24402    0.88721   1.00
H2       0.56455    0.19881    0.89356   1.00
H2       0.75598    0.19473    0.88322   1.00
H2       0.59225    0.23244    0.86642   1.00
H2       0.72994    0.22390    0.91649   1.00
H2       0.61245    0.21065    0.90859   1.00
H2       0.70885    0.21176    0.87102   1.00
H2       0.54542    0.26172    0.98029   1.00
H2       0.77883    0.27212    0.81018   1.00
H2       0.53525    0.21646    0.95805   1.00
H2       0.78649    0.22294    0.82322   1.00
H2       0.58239    0.22604    0.97628   1.00
H2       0.74002    0.23832    0.80742   1.00
C4       0.41965    0.18475    0.91614   1.00
C4       0.42085    0.14309    0.91515   1.00
C3       0.41356    0.20603    0.95134   1.00
C3       0.42014    0.11996    0.94969   1.00
C3       0.42464    0.20646    0.88085   1.00
C3       0.42288    0.12330    0.87847   1.00
C2       0.41915    0.26905    0.91849   1.00
C2       0.42132    0.05878    0.91311   1.00
C3       0.41349    0.24689    0.95259   1.00
C3       0.42017    0.07909    0.94878   1.00
C3       0.42460    0.24804    0.88341   1.00
C3       0.42264    0.08164    0.87879   1.00
H1       0.40854    0.19263    0.97733   1.00
H1       0.41997    0.13194    0.97684   1.00
C5       0.42926    0.18665    0.84427   1.00
C5       0.42532    0.14502    0.84278   1.00
H1       0.40910    0.26049    0.97893   1.00
H1       0.41947    0.06409    0.97472   1.00
H1       0.42832    0.26448    0.85899   1.00
H1       0.42379    0.06652    0.85329   1.00
C6       0.43865    0.20985    0.80786   1.00
C6       0.42326    0.12381    0.80407   1.00
H2       0.46083    0.23155    0.81480   1.00
H2       0.40026    0.10190    0.80545   1.00
H2       0.45358    0.19214    0.78619   1.00
H2       0.41270    0.14272    0.78089   1.00
C6       0.40179    0.22894    0.78863   1.00
C6       0.46324    0.10558    0.79135   1.00
H2       0.38354    0.24208    0.81126   1.00
H2       0.47684    0.09117    0.81635   1.00
C6       0.40876    0.26041    0.75626   1.00
C6       0.46281    0.07589    0.75663   1.00
H2       0.38412    0.20551    0.77616   1.00
H2       0.48286    0.12954    0.78377   1.00
C6       0.42827    0.29765    0.77306   1.00
C6       0.44061    0.03792    0.76736   1.00
C6       0.43408    0.24426    0.72247   1.00
C6       0.44441    0.09393    0.71948   1.00
C6       0.36863    0.27255    0.73908   1.00
C6       0.50557    0.06446    0.74691   1.00
H2       0.41142    0.30942    0.79742   1.00
H2       0.45250    0.02480    0.79386   1.00
H2       0.45768    0.29170    0.78351   1.00
H2       0.40971    0.04346    0.77223   1.00
H2       0.43053    0.32041    0.75090   1.00
H2       0.44279    0.01637    0.74402   1.00
H2       0.43644    0.26545    0.69881   1.00
H2       0.44678    0.07402    0.69473   1.00
H2       0.46358    0.23775    0.73244   1.00
H2       0.41351    0.10006    0.72390   1.00
H2       0.42141    0.21755    0.71065   1.00
H2       0.45898    0.12115    0.71176   1.00
H2       0.34971    0.28458    0.76172   1.00
H2       0.51982    0.05117    0.77212   1.00
H2       0.37195    0.29475    0.71646   1.00
H2       0.50678    0.04351    0.72294   1.00
H2       0.35372    0.24761    0.72604   1.00
H2       0.52258    0.08998    0.73832   1.00
C4       0.41614    0.41965    0.68475   1.00
C4       0.41515    0.42085    0.64309   1.00
C3       0.45134    0.41356    0.70603   1.00
C3       0.44969    0.42014    0.61996   1.00
C3       0.38085    0.42464    0.70646   1.00
C3       0.37847    0.42288    0.62330   1.00
C2       0.41849    0.41915    0.76905   1.00
C2       0.41311    0.42132    0.55878   1.00
C3       0.45259    0.41349    0.74689   1.00
C3       0.44878    0.42017    0.57909   1.00
C3       0.38341    0.42460    0.74804   1.00
C3       0.37879    0.42264    0.58164   1.00
H1       0.47733    0.40854    0.69263   1.00
H1       0.47684    0.41997    0.63194   1.00
C5       0.34427    0.42926    0.68665   1.00
C5       0.34278    0.42532    0.64502   1.00
H1       0.47893    0.40910    0.76049   1.00
H1       0.47472    0.41947    0.56409   1.00
H1       0.35899    0.42832    0.76448   1.00
H1       0.35329    0.42379    0.56652   1.00
C6       0.30786    0.43865    0.70985   1.00
C6       0.30407    0.42326    0.62381   1.00
H2       0.31480    0.46083    0.73155   1.00
H2       0.30545    0.40026    0.60190   1.00
H2       0.28619    0.45358    0.69214   1.00
H2       0.28089    0.41270    0.64272   1.00
C6       0.28863    0.40179    0.72894   1.00
C6       0.29135    0.46324    0.60558   1.00
H2       0.31126    0.38354    0.74208   1.00
H2       0.31635    0.47684    0.59117   1.00
C6       0.25626    0.40876    0.76041   1.00
C6       0.25663    0.46281    0.57589   1.00
H2       0.27616    0.38412    0.70551   1.00
H2       0.28377    0.48286    0.62954   1.00
C6       0.27306    0.42827    0.79765   1.00
C6       0.26736    0.44061    0.53792   1.00
C6       0.22247    0.43408    0.74426   1.00
C6       0.21948    0.44441    0.59393   1.00
C6       0.23908    0.36863    0.77255   1.00
C6       0.24691    0.50557    0.56446   1.00
H2       0.29742    0.41142    0.80942   1.00
H2       0.29386    0.45250    0.52480   1.00
H2       0.28351    0.45768    0.79170   1.00
H2       0.27223    0.40971    0.54346   1.00
H2       0.25090    0.43053    0.82041   1.00
H2       0.24402    0.44279    0.51637   1.00
H2       0.19881    0.43644    0.76545   1.00
H2       0.19473    0.44678    0.57402   1.00
H2       0.23244    0.46358    0.73775   1.00
H2       0.22390    0.41351    0.60006   1.00
H2       0.21065    0.42141    0.71755   1.00
H2       0.21176    0.45898    0.62115   1.00
H2       0.26172    0.34971    0.78458   1.00
H2       0.27212    0.51982    0.55117   1.00
H2       0.21646    0.37195    0.79475   1.00
H2       0.22294    0.50678    0.54351   1.00
H2       0.22604    0.35372    0.74761   1.00
H2       0.23832    0.52258    0.58998   1.00
C4       0.41614    0.91035    0.64525   1.00
C4       0.41515    0.90915    0.68691   1.00
C3       0.45134    0.91644    0.62397   1.00
C3       0.44969    0.90986    0.71004   1.00
C3       0.38085    0.90536    0.62354   1.00
C3       0.37847    0.90712    0.70670   1.00
C2       0.41849    0.91085    0.56095   1.00
C2       0.41311    0.90868    0.77122   1.00
C3       0.45259    0.91651    0.58311   1.00
C3       0.44878    0.90983    0.75091   1.00
C3       0.38341    0.90540    0.58196   1.00
C3       0.37879    0.90736    0.74836   1.00
H1       0.47733    0.92146    0.63737   1.00
H1       0.47684    0.91003    0.69806   1.00
C5       0.34427    0.90074    0.64335   1.00
C5       0.34278    0.90468    0.68498   1.00
H1       0.47893    0.92090    0.56951   1.00
H1       0.47472    0.91053    0.76591   1.00
H1       0.35899    0.90168    0.56552   1.00
H1       0.35329    0.90621    0.76348   1.00
C6       0.30786    0.89135    0.62015   1.00
C6       0.30407    0.90674    0.70619   1.00
H2       0.31480    0.86917    0.59845   1.00
H2       0.30545    0.92974    0.72810   1.00
H2       0.28619    0.87642    0.63786   1.00
H2       0.28089    0.91730    0.68728   1.00
C6       0.28863    0.92821    0.60106   1.00
C6       0.29135    0.86676    0.72442   1.00
H2       0.31126    0.94646    0.58792   1.00
H2       0.31635    0.85316    0.73883   1.00
C6       0.25626    0.92124    0.56959   1.00
C6       0.25663    0.86719    0.75411   1.00
H2       0.27616    0.94588    0.62449   1.00
H2       0.28377    0.84714    0.70046   1.00
C6       0.27306    0.90173    0.53235   1.00
C6       0.26736    0.88939    0.79208   1.00
C6       0.22247    0.89592    0.58574   1.00
C6       0.21948    0.88559    0.73607   1.00
C6       0.23908    0.96137    0.55745   1.00
C6       0.24691    0.82443    0.76554   1.00
H2       0.29742    0.91858    0.52058   1.00
H2       0.29386    0.87750    0.80520   1.00
H2       0.28351    0.87232    0.53830   1.00
H2       0.27223    0.92029    0.78654   1.00
H2       0.25090    0.89947    0.50959   1.00
H2       0.24402    0.88721    0.81363   1.00
H2       0.19881    0.89356    0.56455   1.00
H2       0.19473    0.88322    0.75598   1.00
H2       0.23244    0.86642    0.59225   1.00
H2       0.22390    0.91649    0.72994   1.00
H2       0.21065    0.90859    0.61245   1.00
H2       0.21176    0.87102    0.70885   1.00
H2       0.26172    0.98029    0.54542   1.00
H2       0.27212    0.81018    0.77883   1.00
H2       0.21646    0.95805    0.53525   1.00
H2       0.22294    0.82322    0.78649   1.00
H2       0.22604    0.97628    0.58239   1.00
H2       0.23832    0.80742    0.74002   1.00
C4       0.41035    1.14525    0.41614   1.00
C4       0.40915    1.18691    0.41515   1.00
C3       0.41644    1.12397    0.45134   1.00
C3       0.40986    1.21004    0.44969   1.00
C3       0.40536    1.12354    0.38085   1.00
C3       0.40712    1.20670    0.37847   1.00
C2       0.41085    1.06095    0.41849   1.00
C2       0.40868    1.27122    0.41311   1.00
C3       0.41651    1.08311    0.45259   1.00
C3       0.40983    1.25091    0.44878   1.00
C3       0.40540    1.08196    0.38341   1.00
C3       0.40736    1.24836    0.37879   1.00
H1       0.42146    1.13737    0.47733   1.00
H1       0.41003    1.19806    0.47684   1.00
C5       0.40074    1.14335    0.34427   1.00
C5       0.40468    1.18498    0.34278   1.00
H1       0.42090    1.06951    0.47893   1.00
H1       0.41053    1.26591    0.47472   1.00
H1       0.40168    1.06552    0.35899   1.00
H1       0.40621    1.26348    0.35329   1.00
C6       0.39135    1.12015    0.30786   1.00
C6       0.40674    1.20619    0.30407   1.00
H2       0.36917    1.09845    0.31480   1.00
H2       0.42974    1.22810    0.30545   1.00
H2       0.37642    1.13786    0.28619   1.00
H2       0.41730    1.18728    0.28089   1.00
C6       0.42821    1.10106    0.28863   1.00
C6       0.36676    1.22442    0.29135   1.00
H2       0.44646    1.08792    0.31126   1.00
H2       0.35316    1.23883    0.31635   1.00
C6       0.42124    1.06959    0.25626   1.00
C6       0.36719    1.25411    0.25663   1.00
H2       0.44588    1.12449    0.27616   1.00
H2       0.34714    1.20046    0.28377   1.00
C6       0.40173    1.03235    0.27306   1.00
C6       0.38939    1.29208    0.26736   1.00
C6       0.39592    1.08574    0.22247   1.00
C6       0.38559    1.23607    0.21948   1.00
C6       0.46137    1.05745    0.23908   1.00
C6       0.32443    1.26554    0.24691   1.00
H2       0.41858    1.02058    0.29742   1.00
H2       0.37750    1.30520    0.29386   1.00
H2       0.37232    1.03830    0.28351   1.00
H2       0.42029    1.28654    0.27223   1.00
H2       0.39947    1.00959    0.25090   1.00
H2       0.38721    1.31363    0.24402   1.00
H2       0.39356    1.06455    0.19881   1.00
H2       0.38322    1.25598    0.19473   1.00
H2       0.36642    1.09225    0.23244   1.00
H2       0.41649    1.22994    0.22390   1.00
H2       0.40859    1.11245    0.21065   1.00
H2       0.37102    1.20885    0.21176   1.00
H2       0.48029    1.04542    0.26172   1.00
H2       0.31018    1.27883    0.27212   1.00
H2       0.45805    1.03525    0.21646   1.00
H2       0.32322    1.28649    0.22294   1.00
H2       0.47628    1.08239    0.22604   1.00
H2       0.30742    1.24002    0.23832   1.00
C4       0.18475    0.91614    0.41965   1.00
C4       0.14309    0.91515    0.42085   1.00
C3       0.20603    0.95134    0.41356   1.00
C3       0.11996    0.94969    0.42014   1.00
C3       0.20646    0.88085    0.42464   1.00
C3       0.12330    0.87847    0.42288   1.00
C2       0.26905    0.91849    0.41915   1.00
C2       0.05878    0.91311    0.42132   1.00
C3       0.24689    0.95259    0.41349   1.00
C3       0.07909    0.94878    0.42017   1.00
C3       0.24804    0.88341    0.42460   1.00
C3       0.08164    0.87879    0.42264   1.00
H1       0.19263    0.97733    0.40854   1.00
H1       0.13194    0.97684    0.41997   1.00
C5       0.18665    0.84427    0.42926   1.00
C5       0.14502    0.84278    0.42532   1.00
H1       0.26049    0.97893    0.40910   1.00
H1       0.06409    0.97472    0.41947   1.00
H1       0.26448    0.85899    0.42832   1.00
H1       0.06652    0.85329    0.42379   1.00
C6       0.20985    0.80786    0.43865   1.00
C6       0.12381    0.80407    0.42326   1.00
H2       0.23155    0.81480    0.46083   1.00
H2       0.10190    0.80545    0.40026   1.00
H2       0.19214    0.78619    0.45358   1.00
H2       0.14272    0.78089    0.41270   1.00
C6       0.22894    0.78863    0.40179   1.00
C6       0.10558    0.79135    0.46324   1.00
H2       0.24208    0.81126    0.38354   1.00
H2       0.09117    0.81635    0.47684   1.00
C6       0.26041    0.75626    0.40876   1.00
C6       0.07589    0.75663    0.46281   1.00
H2       0.20551    0.77616    0.38412   1.00
H2       0.12954    0.78377    0.48286   1.00
C6       0.29765    0.77306    0.42827   1.00
C6       0.03792    0.76736    0.44061   1.00
C6       0.24426    0.72247    0.43408   1.00
C6       0.09393    0.71948    0.44441   1.00
C6       0.27255    0.73908    0.36863   1.00
C6       0.06446    0.74691    0.50557   1.00
H2       0.30942    0.79742    0.41142   1.00
H2       0.02480    0.79386    0.45250   1.00
H2       0.29170    0.78351    0.45768   1.00
H2       0.04346    0.77223    0.40971   1.00
H2       0.32041    0.75090    0.43053   1.00
H2       0.01637    0.74402    0.44279   1.00
H2       0.26545    0.69881    0.43644   1.00
H2       0.07402    0.69473    0.44678   1.00
H2       0.23775    0.73244    0.46358   1.00
H2       0.10006    0.72390    0.41351   1.00
H2       0.21755    0.71065    0.42141   1.00
H2       0.12115    0.71176    0.45898   1.00
H2       0.28458    0.76172    0.34971   1.00
H2       0.05117    0.77212    0.51982   1.00
H2       0.29475    0.71646    0.37195   1.00
H2       0.04351    0.72294    0.50678   1.00
H2       0.24761    0.72604    0.35372   1.00
H2       0.08998    0.73832    0.52258   1.00
C4       0.64525    0.91614    0.41035   1.00
C4       0.68691    0.91515    0.40915   1.00
C3       0.62397    0.95134    0.41644   1.00
C3       0.71004    0.94969    0.40986   1.00
C3       0.62354    0.88085    0.40536   1.00
C3       0.70670    0.87847    0.40712   1.00
C2       0.56095    0.91849    0.41085   1.00
C2       0.77122    0.91311    0.40868   1.00
C3       0.58311    0.95259    0.41651   1.00
C3       0.75091    0.94878    0.40983   1.00
C3       0.58196    0.88341    0.40540   1.00
C3       0.74836    0.87879    0.40736   1.00
H1       0.63737    0.97733    0.42146   1.00
H1       0.69806    0.97684    0.41003   1.00
C5       0.64335    0.84427    0.40074   1.00
C5       0.68498    0.84278    0.40468   1.00
H1       0.56951    0.97893    0.42090   1.00
H1       0.76591    0.97472    0.41053   1.00
H1       0.56552    0.85899    0.40168   1.00
H1       0.76348    0.85329    0.40621   1.00
C6       0.62015    0.80786    0.39135   1.00
C6       0.70619    0.80407    0.40674   1.00
H2       0.59845    0.81480    0.36917   1.00
H2       0.72810    0.80545    0.42974   1.00
H2       0.63786    0.78619    0.37642   1.00
H2       0.68728    0.78089    0.41730   1.00
C6       0.60106    0.78863    0.42821   1.00
C6       0.72442    0.79135    0.36676   1.00
H2       0.58792    0.81126    0.44646   1.00
H2       0.73883    0.81635    0.35316   1.00
C6       0.56959    0.75626    0.42124   1.00
C6       0.75411    0.75663    0.36719   1.00
H2       0.62449    0.77616    0.44588   1.00
H2       0.70046    0.78377    0.34714   1.00
C6       0.53235    0.77306    0.40173   1.00
C6       0.79208    0.76736    0.38939   1.00
C6       0.58574    0.72247    0.39592   1.00
C6       0.73607    0.71948    0.38559   1.00
C6       0.55745    0.73908    0.46137   1.00
C6       0.76554    0.74691    0.32443   1.00
H2       0.52058    0.79742    0.41858   1.00
H2       0.80520    0.79386    0.37750   1.00
H2       0.53830    0.78351    0.37232   1.00
H2       0.78654    0.77223    0.42029   1.00
H2       0.50959    0.75090    0.39947   1.00
H2       0.81363    0.74402    0.38721   1.00
H2       0.56455    0.69881    0.39356   1.00
H2       0.75598    0.69473    0.38322   1.00
H2       0.59225    0.73244    0.36642   1.00
H2       0.72994    0.72390    0.41649   1.00
H2       0.61245    0.71065    0.40859   1.00
H2       0.70885    0.71176    0.37102   1.00
H2       0.54542    0.76172    0.48029   1.00
H2       0.77883    0.77212    0.31018   1.00
H2       0.53525    0.71646    0.45805   1.00
H2       0.78649    0.72294    0.32322   1.00
H2       0.58239    0.72604    0.47628   1.00
H2       0.74002    0.73832    0.30742   1.00
C4       0.41965    0.68475    0.41614   1.00
C4       0.42085    0.64309    0.41515   1.00
C3       0.41356    0.70603    0.45134   1.00
C3       0.42014    0.61996    0.44969   1.00
C3       0.42464    0.70646    0.38085   1.00
C3       0.42288    0.62330    0.37847   1.00
C2       0.41915    0.76905    0.41849   1.00
C2       0.42132    0.55878    0.41311   1.00
C3       0.41349    0.74689    0.45259   1.00
C3       0.42017    0.57909    0.44878   1.00
C3       0.42460    0.74804    0.38341   1.00
C3       0.42264    0.58164    0.37879   1.00
H1       0.40854    0.69263    0.47733   1.00
H1       0.41997    0.63194    0.47684   1.00
C5       0.42926    0.68665    0.34427   1.00
C5       0.42532    0.64502    0.34278   1.00
H1       0.40910    0.76049    0.47893   1.00
H1       0.41947    0.56409    0.47472   1.00
H1       0.42832    0.76448    0.35899   1.00
H1       0.42379    0.56652    0.35329   1.00
C6       0.43865    0.70985    0.30786   1.00
C6       0.42326    0.62381    0.30407   1.00
H2       0.46083    0.73155    0.31480   1.00
H2       0.40026    0.60190    0.30545   1.00
H2       0.45358    0.69214    0.28619   1.00
H2       0.41270    0.64272    0.28089   1.00
C6       0.40179    0.72894    0.28863   1.00
C6       0.46324    0.60558    0.29135   1.00
H2       0.38354    0.74208    0.31126   1.00
H2       0.47684    0.59117    0.31635   1.00
C6       0.40876    0.76041    0.25626   1.00
C6       0.46281    0.57589    0.25663   1.00
H2       0.38412    0.70551    0.27616   1.00
H2       0.48286    0.62954    0.28377   1.00
C6       0.42827    0.79765    0.27306   1.00
C6       0.44061    0.53792    0.26736   1.00
C6       0.43408    0.74426    0.22247   1.00
C6       0.44441    0.59393    0.21948   1.00
C6       0.36863    0.77255    0.23908   1.00
C6       0.50557    0.56446    0.24691   1.00
H2       0.41142    0.80942    0.29742   1.00
H2       0.45250    0.52480    0.29386   1.00
H2       0.45768    0.79170    0.28351   1.00
H2       0.40971    0.54346    0.27223   1.00
H2       0.43053    0.82041    0.25090   1.00
H2       0.44279    0.51637    0.24402   1.00
H2       0.43644    0.76545    0.19881   1.00
H2       0.44678    0.57402    0.19473   1.00
H2       0.46358    0.73775    0.23244   1.00
H2       0.41351    0.60006    0.22390   1.00
H2       0.42141    0.71755    0.21065   1.00
H2       0.45898    0.62115    0.21176   1.00
H2       0.34971    0.78458    0.26172   1.00
H2       0.51982    0.55117    0.27212   1.00
H2       0.37195    0.79475    0.21646   1.00
H2       0.50678    0.54351    0.22294   1.00
H2       0.35372    0.74761    0.22604   1.00
H2       0.52258    0.58998    0.23832   1.00
C4       0.41614    0.91965    0.18475   1.00
C4       0.41515    0.92085    0.14309   1.00
C3       0.45134    0.91356    0.20603   1.00
C3       0.44969    0.92014    0.11996   1.00
C3       0.38085    0.92464    0.20646   1.00
C3       0.37847    0.92288    0.12330   1.00
C2       0.41849    0.91915    0.26905   1.00
C2       0.41311    0.92132    0.05878   1.00
C3       0.45259    0.91349    0.24689   1.00
C3       0.44878    0.92017    0.07909   1.00
C3       0.38341    0.92460    0.24804   1.00
C3       0.37879    0.92264    0.08164   1.00
H1       0.47733    0.90854    0.19263   1.00
H1       0.47684    0.91997    0.13194   1.00
C5       0.34427    0.92926    0.18665   1.00
C5       0.34278    0.92532    0.14502   1.00
H1       0.47893    0.90910    0.26049   1.00
H1       0.47472    0.91947    0.06409   1.00
H1       0.35899    0.92832    0.26448   1.00
H1       0.35329    0.92379    0.06652   1.00
C6       0.30786    0.93865    0.20985   1.00
C6       0.30407    0.92326    0.12381   1.00
H2       0.31480    0.96083    0.23155   1.00
H2       0.30545    0.90026    0.10190   1.00
H2       0.28619    0.95358    0.19214   1.00
H2       0.28089    0.91270    0.14272   1.00
C6       0.28863    0.90179    0.22894   1.00
C6       0.29135    0.96324    0.10558   1.00
H2       0.31126    0.88354    0.24208   1.00
H2       0.31635    0.97684    0.09117   1.00
C6       0.25626    0.90876    0.26041   1.00
C6       0.25663    0.96281    0.07589   1.00
H2       0.27616    0.88412    0.20551   1.00
H2       0.28377    0.98286    0.12954   1.00
C6       0.27306    0.92827    0.29765   1.00
C6       0.26736    0.94061    0.03792   1.00
C6       0.22247    0.93408    0.24426   1.00
C6       0.21948    0.94441    0.09393   1.00
C6       0.23908    0.86863    0.27255   1.00
C6       0.24691    1.00557    0.06446   1.00
H2       0.29742    0.91142    0.30942   1.00
H2       0.29386    0.95250    0.02480   1.00
H2       0.28351    0.95768    0.29170   1.00
H2       0.27223    0.90971    0.04346   1.00
H2       0.25090    0.93053    0.32041   1.00
H2       0.24402    0.94279    0.01637   1.00
H2       0.19881    0.93644    0.26545   1.00
H2       0.19473    0.94678    0.07402   1.00
H2       0.23244    0.96358    0.23775   1.00
H2       0.22390    0.91351    0.10006   1.00
H2       0.21065    0.92141    0.21755   1.00
H2       0.21176    0.95898    0.12115   1.00
H2       0.26172    0.84971    0.28458   1.00
H2       0.27212    1.01982    0.05117   1.00
H2       0.21646    0.87195    0.29475   1.00
H2       0.22294    1.00678    0.04351   1.00
H2       0.22604    0.85372    0.24761   1.00
H2       0.23832    1.02258    0.08998   1.00
C4       0.91614    0.41035    0.64525   1.00
C4       0.91515    0.40915    0.68691   1.00
C3       0.95134    0.41644    0.62397   1.00
C3       0.94969    0.40986    0.71004   1.00
C3       0.88085    0.40536    0.62354   1.00
C3       0.87847    0.40712    0.70670   1.00
C2       0.91849    0.41085    0.56095   1.00
C2       0.91311    0.40868    0.77122   1.00
C3       0.95259    0.41651    0.58311   1.00
C3       0.94878    0.40983    0.75091   1.00
C3       0.88341    0.40540    0.58196   1.00
C3       0.87879    0.40736    0.74836   1.00
H1       0.97733    0.42146    0.63737   1.00
H1       0.97684    0.41003    0.69806   1.00
C5       0.84427    0.40074    0.64335   1.00
C5       0.84278    0.40468    0.68498   1.00
H1       0.97893    0.42090    0.56951   1.00
H1       0.97472    0.41053    0.76591   1.00
H1       0.85899    0.40168    0.56552   1.00
H1       0.85329    0.40621    0.76348   1.00
C6       0.80786    0.39135    0.62015   1.00
C6       0.80407    0.40674    0.70619   1.00
H2       0.81480    0.36917    0.59845   1.00
H2       0.80545    0.42974    0.72810   1.00
H2       0.78619    0.37642    0.63786   1.00
H2       0.78089    0.41730    0.68728   1.00
C6       0.78863    0.42821    0.60106   1.00
C6       0.79135    0.36676    0.72442   1.00
H2       0.81126    0.44646    0.58792   1.00
H2       0.81635    0.35316    0.73883   1.00
C6       0.75626    0.42124    0.56959   1.00
C6       0.75663    0.36719    0.75411   1.00
H2       0.77616    0.44588    0.62449   1.00
H2       0.78377    0.34714    0.70046   1.00
C6       0.77306    0.40173    0.53235   1.00
C6       0.76736    0.38939    0.79208   1.00
C6       0.72247    0.39592    0.58574   1.00
C6       0.71948    0.38559    0.73607   1.00
C6       0.73908    0.46137    0.55745   1.00
C6       0.74691    0.32443    0.76554   1.00
H2       0.79742    0.41858    0.52058   1.00
H2       0.79386    0.37750    0.80520   1.00
H2       0.78351    0.37232    0.53830   1.00
H2       0.77223    0.42029    0.78654   1.00
H2       0.75090    0.39947    0.50959   1.00
H2       0.74402    0.38721    0.81363   1.00
H2       0.69881    0.39356    0.56455   1.00
H2       0.69473    0.38322    0.75598   1.00
H2       0.73244    0.36642    0.59225   1.00
H2       0.72390    0.41649    0.72994   1.00
H2       0.71065    0.40859    0.61245   1.00
H2       0.71176    0.37102    0.70885   1.00
H2       0.76172    0.48029    0.54542   1.00
H2       0.77212    0.31018    0.77883   1.00
H2       0.71646    0.45805    0.53525   1.00
H2       0.72294    0.32322    0.78649   1.00
H2       0.72604    0.47628    0.58239   1.00
H2       0.73832    0.30742    0.74002   1.00
C4       0.91035    0.64525    0.41614   1.00
C4       0.90915    0.68691    0.41515   1.00
C3       0.91644    0.62397    0.45134   1.00
C3       0.90986    0.71004    0.44969   1.00
C3       0.90536    0.62354    0.38085   1.00
C3       0.90712    0.70670    0.37847   1.00
C2       0.91085    0.56095    0.41849   1.00
C2       0.90868    0.77122    0.41311   1.00
C3       0.91651    0.58311    0.45259   1.00
C3       0.90983    0.75091    0.44878   1.00
C3       0.90540    0.58196    0.38341   1.00
C3       0.90736    0.74836    0.37879   1.00
H1       0.92146    0.63737    0.47733   1.00
H1       0.91003    0.69806    0.47684   1.00
C5       0.90074    0.64335    0.34427   1.00
C5       0.90468    0.68498    0.34278   1.00
H1       0.92090    0.56951    0.47893   1.00
H1       0.91053    0.76591    0.47472   1.00
H1       0.90168    0.56552    0.35899   1.00
H1       0.90621    0.76348    0.35329   1.00
C6       0.89135    0.62015    0.30786   1.00
C6       0.90674    0.70619    0.30407   1.00
H2       0.86917    0.59845    0.31480   1.00
H2       0.92974    0.72810    0.30545   1.00
H2       0.87642    0.63786    0.28619   1.00
H2       0.91730    0.68728    0.28089   1.00
C6       0.92821    0.60106    0.28863   1.00
C6       0.86676    0.72442    0.29135   1.00
H2       0.94646    0.58792    0.31126   1.00
H2       0.85316    0.73883    0.31635   1.00
C6       0.92124    0.56959    0.25626   1.00
C6       0.86719    0.75411    0.25663   1.00
H2       0.94588    0.62449    0.27616   1.00
H2       0.84714    0.70046    0.28377   1.00
C6       0.90173    0.53235    0.27306   1.00
C6       0.88939    0.79208    0.26736   1.00
C6       0.89592    0.58574    0.22247   1.00
C6       0.88559    0.73607    0.21948   1.00
C6       0.96137    0.55745    0.23908   1.00
C6       0.82443    0.76554    0.24691   1.00
H2       0.91858    0.52058    0.29742   1.00
H2       0.87750    0.80520    0.29386   1.00
H2       0.87232    0.53830    0.28351   1.00
H2       0.92029    0.78654    0.27223   1.00
H2       0.89947    0.50959    0.25090   1.00
H2       0.88721    0.81363    0.24402   1.00
H2       0.89356    0.56455    0.19881   1.00
H2       0.88322    0.75598    0.19473   1.00
H2       0.86642    0.59225    0.23244   1.00
H2       0.91649    0.72994    0.22390   1.00
H2       0.90859    0.61245    0.21065   1.00
H2       0.87102    0.70885    0.21176   1.00
H2       0.98029    0.54542    0.26172   1.00
H2       0.81018    0.77883    0.27212   1.00
H2       0.95805    0.53525    0.21646   1.00
H2       0.82322    0.78649    0.22294   1.00
H2       0.97628    0.58239    0.22604   1.00
H2       0.80742    0.74002    0.23832   1.00
C4       0.68475    0.41614    0.41965   1.00
C4       0.64309    0.41515    0.42085   1.00
C3       0.70603    0.45134    0.41356   1.00
C3       0.61996    0.44969    0.42014   1.00
C3       0.70646    0.38085    0.42464   1.00
C3       0.62330    0.37847    0.42288   1.00
C2       0.76905    0.41849    0.41915   1.00
C2       0.55878    0.41311    0.42132   1.00
C3       0.74689    0.45259    0.41349   1.00
C3       0.57909    0.44878    0.42017   1.00
C3       0.74804    0.38341    0.42460   1.00
C3       0.58164    0.37879    0.42264   1.00
H1       0.69263    0.47733    0.40854   1.00
H1       0.63194    0.47684    0.41997   1.00
C5       0.68665    0.34427    0.42926   1.00
C5       0.64502    0.34278    0.42532   1.00
H1       0.76049    0.47893    0.40910   1.00
H1       0.56409    0.47472    0.41947   1.00
H1       0.76448    0.35899    0.42832   1.00
H1       0.56652    0.35329    0.42379   1.00
C6       0.70985    0.30786    0.43865   1.00
C6       0.62381    0.30407    0.42326   1.00
H2       0.73155    0.31480    0.46083   1.00
H2       0.60190    0.30545    0.40026   1.00
H2       0.69214    0.28619    0.45358   1.00
H2       0.64272    0.28089    0.41270   1.00
C6       0.72894    0.28863    0.40179   1.00
C6       0.60558    0.29135    0.46324   1.00
H2       0.74208    0.31126    0.38354   1.00
H2       0.59117    0.31635    0.47684   1.00
C6       0.76041    0.25626    0.40876   1.00
C6       0.57589    0.25663    0.46281   1.00
H2       0.70551    0.27616    0.38412   1.00
H2       0.62954    0.28377    0.48286   1.00
C6       0.79765    0.27306    0.42827   1.00
C6       0.53792    0.26736    0.44061   1.00
C6       0.74426    0.22247    0.43408   1.00
C6       0.59393    0.21948    0.44441   1.00
C6       0.77255    0.23908    0.36863   1.00
C6       0.56446    0.24691    0.50557   1.00
H2       0.80942    0.29742    0.41142   1.00
H2       0.52480    0.29386    0.45250   1.00
H2       0.79170    0.28351    0.45768   1.00
H2       0.54346    0.27223    0.40971   1.00
H2       0.82041    0.25090    0.43053   1.00
H2       0.51637    0.24402    0.44279   1.00
H2       0.76545    0.19881    0.43644   1.00
H2       0.57402    0.19473    0.44678   1.00
H2       0.73775    0.23244    0.46358   1.00
H2       0.60006    0.22390    0.41351   1.00
H2       0.71755    0.21065    0.42141   1.00
H2       0.62115    0.21176    0.45898   1.00
H2       0.78458    0.26172    0.34971   1.00
H2       0.55117    0.27212    0.51982   1.00
H2       0.79475    0.21646    0.37195   1.00
H2       0.54351    0.22294    0.50678   1.00
H2       0.74761    0.22604    0.35372   1.00
H2       0.58998    0.23832    0.52258   1.00
C4       1.14525    0.41614    0.41035   1.00
C4       1.18691    0.41515    0.40915   1.00
C3       1.12397    0.45134    0.41644   1.00
C3       1.21004    0.44969    0.40986   1.00
C3       1.12354    0.38085    0.40536   1.00
C3       1.20670    0.37847    0.40712   1.00
C2       1.06095    0.41849    0.41085   1.00
C2       1.27122    0.41311    0.40868   1.00
C3       1.08311    0.45259    0.41651   1.00
C3       1.25091    0.44878    0.40983   1.00
C3       1.08196    0.38341    0.40540   1.00
C3       1.24836    0.37879    0.40736   1.00
H1       1.13737    0.47733    0.42146   1.00
H1       1.19806    0.47684    0.41003   1.00
C5       1.14335    0.34427    0.40074   1.00
C5       1.18498    0.34278    0.40468   1.00
H1       1.06951    0.47893    0.42090   1.00
H1       1.26591    0.47472    0.41053   1.00
H1       1.06552    0.35899    0.40168   1.00
H1       1.26348    0.35329    0.40621   1.00
C6       1.12015    0.30786    0.39135   1.00
C6       1.20619    0.30407    0.40674   1.00
H2       1.09845    0.31480    0.36917   1.00
H2       1.22810    0.30545    0.42974   1.00
H2       1.13786    0.28619    0.37642   1.00
H2       1.18728    0.28089    0.41730   1.00
C6       1.10106    0.28863    0.42821   1.00
C6       1.22442    0.29135    0.36676   1.00
H2       1.08792    0.31126    0.44646   1.00
H2       1.23883    0.31635    0.35316   1.00
C6       1.06959    0.25626    0.42124   1.00
C6       1.25411    0.25663    0.36719   1.00
H2       1.12449    0.27616    0.44588   1.00
H2       1.20046    0.28377    0.34714   1.00
C6       1.03235    0.27306    0.40173   1.00
C6       1.29208    0.26736    0.38939   1.00
C6       1.08574    0.22247    0.39592   1.00
C6       1.23607    0.21948    0.38559   1.00
C6       1.05745    0.23908    0.46137   1.00
C6       1.26554    0.24691    0.32443   1.00
H2       1.02058    0.29742    0.41858   1.00
H2       1.30520    0.29386    0.37750   1.00
H2       1.03830    0.28351    0.37232   1.00
H2       1.28654    0.27223    0.42029   1.00
H2       1.00959    0.25090    0.39947   1.00
H2       1.31363    0.24402    0.38721   1.00
H2       1.06455    0.19881    0.39356   1.00
H2       1.25598    0.19473    0.38322   1.00
H2       1.09225    0.23244    0.36642   1.00
H2       1.22994    0.22390    0.41649   1.00
H2       1.11245    0.21065    0.40859   1.00
H2       1.20885    0.21176    0.37102   1.00
H2       1.04542    0.26172    0.48029   1.00
H2       1.27883    0.27212    0.31018   1.00
H2       1.03525    0.21646    0.45805   1.00
H2       1.28649    0.22294    0.32322   1.00
H2       1.08239    0.22604    0.47628   1.00
H2       1.24002    0.23832    0.30742   1.00
C4       0.91965    0.18475    0.41614   1.00
C4       0.92085    0.14309    0.41515   1.00
C3       0.91356    0.20603    0.45134   1.00
C3       0.92014    0.11996    0.44969   1.00
C3       0.92464    0.20646    0.38085   1.00
C3       0.92288    0.12330    0.37847   1.00
C2       0.91915    0.26905    0.41849   1.00
C2       0.92132    0.05878    0.41311   1.00
C3       0.91349    0.24689    0.45259   1.00
C3       0.92017    0.07909    0.44878   1.00
C3       0.92460    0.24804    0.38341   1.00
C3       0.92264    0.08164    0.37879   1.00
H1       0.90854    0.19263    0.47733   1.00
H1       0.91997    0.13194    0.47684   1.00
C5       0.92926    0.18665    0.34427   1.00
C5       0.92532    0.14502    0.34278   1.00
H1       0.90910    0.26049    0.47893   1.00
H1       0.91947    0.06409    0.47472   1.00
H1       0.92832    0.26448    0.35899   1.00
H1       0.92379    0.06652    0.35329   1.00
C6       0.93865    0.20985    0.30786   1.00
C6       0.92326    0.12381    0.30407   1.00
H2       0.96083    0.23155    0.31480   1.00
H2       0.90026    0.10190    0.30545   1.00
H2       0.95358    0.19214    0.28619   1.00
H2       0.91270    0.14272    0.28089   1.00
C6       0.90179    0.22894    0.28863   1.00
C6       0.96324    0.10558    0.29135   1.00
H2       0.88354    0.24208    0.31126   1.00
H2       0.97684    0.09117    0.31635   1.00
C6       0.90876    0.26041    0.25626   1.00
C6       0.96281    0.07589    0.25663   1.00
H2       0.88412    0.20551    0.27616   1.00
H2       0.98286    0.12954    0.28377   1.00
C6       0.92827    0.29765    0.27306   1.00
C6       0.94061    0.03792    0.26736   1.00
C6       0.93408    0.24426    0.22247   1.00
C6       0.94441    0.09393    0.21948   1.00
C6       0.86863    0.27255    0.23908   1.00
C6       1.00557    0.06446    0.24691   1.00
H2       0.91142    0.30942    0.29742   1.00
H2       0.95250    0.02480    0.29386   1.00
H2       0.95768    0.29170    0.28351   1.00
H2       0.90971    0.04346    0.27223   1.00
H2       0.93053    0.32041    0.25090   1.00
H2       0.94279    0.01637    0.24402   1.00
H2       0.93644    0.26545    0.19881   1.00
H2       0.94678    0.07402    0.19473   1.00
H2       0.96358    0.23775    0.23244   1.00
H2       0.91351    0.10006    0.22390   1.00
H2       0.92141    0.21755    0.21065   1.00
H2       0.95898    0.12115    0.21176   1.00
H2       0.84971    0.28458    0.26172   1.00
H2       1.01982    0.05117    0.27212   1.00
H2       0.87195    0.29475    0.21646   1.00
H2       1.00678    0.04351    0.22294   1.00
H2       0.85372    0.24761    0.22604   1.00
H2       1.02258    0.08998    0.23832   1.00
C4       0.91614    0.41965    0.18475   1.00
C4       0.91515    0.42085    0.14309   1.00
C3       0.95134    0.41356    0.20603   1.00
C3       0.94969    0.42014    0.11996   1.00
C3       0.88085    0.42464    0.20646   1.00
C3       0.87847    0.42288    0.12330   1.00
C2       0.91849    0.41915    0.26905   1.00
C2       0.91311    0.42132    0.05878   1.00
C3       0.95259    0.41349    0.24689   1.00
C3       0.94878    0.42017    0.07909   1.00
C3       0.88341    0.42460    0.24804   1.00
C3       0.87879    0.42264    0.08164   1.00
H1       0.97733    0.40854    0.19263   1.00
H1       0.97684    0.41997    0.13194   1.00
C5       0.84427    0.42926    0.18665   1.00
C5       0.84278    0.42532    0.14502   1.00
H1       0.97893    0.40910    0.26049   1.00
H1       0.97472    0.41947    0.06409   1.00
H1       0.85899    0.42832    0.26448   1.00
H1       0.85329    0.42379    0.06652   1.00
C6       0.80786    0.43865    0.20985   1.00
C6       0.80407    0.42326    0.12381   1.00
H2       0.81480    0.46083    0.23155   1.00
H2       0.80545    0.40026    0.10190   1.00
H2       0.78619    0.45358    0.19214   1.00
H2       0.78089    0.41270    0.14272   1.00
C6       0.78863    0.40179    0.22894   1.00
C6       0.79135    0.46324    0.10558   1.00
H2       0.81126    0.38354    0.24208   1.00
H2       0.81635    0.47684    0.09117   1.00
C6       0.75626    0.40876    0.26041   1.00
C6       0.75663    0.46281    0.07589   1.00
H2       0.77616    0.38412    0.20551   1.00
H2       0.78377    0.48286    0.12954   1.00
C6       0.77306    0.42827    0.29765   1.00
C6       0.76736    0.44061    0.03792   1.00
C6       0.72247    0.43408    0.24426   1.00
C6       0.71948    0.44441    0.09393   1.00
C6       0.73908    0.36863    0.27255   1.00
C6       0.74691    0.50557    0.06446   1.00
H2       0.79742    0.41142    0.30942   1.00
H2       0.79386    0.45250    0.02480   1.00
H2       0.78351    0.45768    0.29170   1.00
H2       0.77223    0.40971    0.04346   1.00
H2       0.75090    0.43053    0.32041   1.00
H2       0.74402    0.44279    0.01637   1.00
H2       0.69881    0.43644    0.26545   1.00
H2       0.69473    0.44678    0.07402   1.00
H2       0.73244    0.46358    0.23775   1.00
H2       0.72390    0.41351    0.10006   1.00
H2       0.71065    0.42141    0.21755   1.00
H2       0.71176    0.45898    0.12115   1.00
H2       0.76172    0.34971    0.28458   1.00
H2       0.77212    0.51982    0.05117   1.00
H2       0.71646    0.37195    0.29475   1.00
H2       0.72294    0.50678    0.04351   1.00
H2       0.72604    0.35372    0.24761   1.00
H2       0.73832    0.52258    0.08998   1.00
