data_IRMOF10_SG202_interpen_Ligand2cp_label_l.

_audit_creation_method             'generated by an auxiliary program of Tobunporous'

_symmetry_space_group_name_H-M     'P 1'
_symmetry_Int_Tables_number        1
_symmetry_cell_setting             triclinic

_cell_length_a                    34.2800
_cell_length_b                    34.2800
_cell_length_c                    34.2800
_cell_angle_alpha                 90.0000
_cell_angle_beta                  90.0000
_cell_angle_gamma                 90.0000

loop_
_atom_site_label
_atom_site_fract_x
_atom_site_fract_y
_atom_site_fract_z
_atom_site_occupancy
O1       0.75000    0.75000    0.75000   1.00
Zn1      0.71720    0.78280    0.78280   1.00
Zn1      0.78280    0.71720    0.78280   1.00
Zn1      0.78280    0.78280    0.71720   1.00
Zn1      0.71720    0.71720    0.71720   1.00
O2       0.72650    0.77350    0.83820   1.00
O2       0.72650    0.83820    0.77350   1.00
O2       0.66180    0.77350    0.77350   1.00
O2       0.77350    0.72650    0.83820   1.00
O2       0.83820    0.72650    0.77350   1.00
O2       0.77350    0.66180    0.77350   1.00
O2       0.77350    0.83820    0.72650   1.00
O2       0.83820    0.77350    0.72650   1.00
O2       0.77350    0.77350    0.66180   1.00
O2       0.66180    0.72650    0.72650   1.00
O2       0.72650    0.66180    0.72650   1.00
O2       0.72650    0.72650    0.66180   1.00
C1       0.75000    0.75000    0.85520   1.00
C1       0.75000    0.85520    0.75000   1.00
C1       0.64480    0.75000    0.75000   1.00
C1       0.85520    0.75000    0.75000   1.00
C1       0.75000    0.64480    0.75000   1.00
C1       0.75000    0.75000    0.64480   1.00
O1       0.25000    0.25000    0.75000   1.00
Zn1      0.21720    0.28280    0.78280   1.00
Zn1      0.28280    0.21720    0.78280   1.00
Zn1      0.28280    0.28280    0.71720   1.00
Zn1      0.21720    0.21720    0.71720   1.00
O2       0.22650    0.27350    0.83820   1.00
O2       0.22650    0.33820    0.77350   1.00
O2       0.16180    0.27350    0.77350   1.00
O2       0.27350    0.22650    0.83820   1.00
O2       0.33820    0.22650    0.77350   1.00
O2       0.27350    0.16180    0.77350   1.00
O2       0.27350    0.33820    0.72650   1.00
O2       0.33820    0.27350    0.72650   1.00
O2       0.27350    0.27350    0.66180   1.00
O2       0.16180    0.22650    0.72650   1.00
O2       0.22650    0.16180    0.72650   1.00
O2       0.22650    0.22650    0.66180   1.00
C1       0.25000    0.25000    0.85520   1.00
C1       0.25000    0.35520    0.75000   1.00
C1       0.14480    0.25000    0.75000   1.00
C1       0.35520    0.25000    0.75000   1.00
C1       0.25000    0.14480    0.75000   1.00
C1       0.25000    0.25000    0.64480   1.00
O1       0.25000    0.75000    0.25000   1.00
Zn1      0.21720    0.78280    0.28280   1.00
Zn1      0.28280    0.71720    0.28280   1.00
Zn1      0.28280    0.78280    0.21720   1.00
Zn1      0.21720    0.71720    0.21720   1.00
O2       0.22650    0.77350    0.33820   1.00
O2       0.22650    0.83820    0.27350   1.00
O2       0.16180    0.77350    0.27350   1.00
O2       0.27350    0.72650    0.33820   1.00
O2       0.33820    0.72650    0.27350   1.00
O2       0.27350    0.66180    0.27350   1.00
O2       0.27350    0.83820    0.22650   1.00
O2       0.33820    0.77350    0.22650   1.00
O2       0.27350    0.77350    0.16180   1.00
O2       0.16180    0.72650    0.22650   1.00
O2       0.22650    0.66180    0.22650   1.00
O2       0.22650    0.72650    0.16180   1.00
C1       0.25000    0.75000    0.35520   1.00
C1       0.25000    0.85520    0.25000   1.00
C1       0.14480    0.75000    0.25000   1.00
C1       0.35520    0.75000    0.25000   1.00
C1       0.25000    0.64480    0.25000   1.00
C1       0.25000    0.75000    0.14480   1.00
O1       0.75000    0.25000    0.25000   1.00
Zn1      0.71720    0.28280    0.28280   1.00
Zn1      0.78280    0.21720    0.28280   1.00
Zn1      0.78280    0.28280    0.21720   1.00
Zn1      0.71720    0.21720    0.21720   1.00
O2       0.72650    0.27350    0.33820   1.00
O2       0.72650    0.33820    0.27350   1.00
O2       0.66180    0.27350    0.27350   1.00
O2       0.77350    0.22650    0.33820   1.00
O2       0.83820    0.22650    0.27350   1.00
O2       0.77350    0.16180    0.27350   1.00
O2       0.77350    0.33820    0.22650   1.00
O2       0.83820    0.27350    0.22650   1.00
O2       0.77350    0.27350    0.16180   1.00
O2       0.66180    0.22650    0.22650   1.00
O2       0.72650    0.16180    0.22650   1.00
O2       0.72650    0.22650    0.16180   1.00
C1       0.75000    0.25000    0.35520   1.00
C1       0.75000    0.35520    0.25000   1.00
C1       0.64480    0.25000    0.25000   1.00
C1       0.85520    0.25000    0.25000   1.00
C1       0.75000    0.14480    0.25000   1.00
C1       0.75000    0.25000    0.14480   1.00
O1       0.25000    0.25000    0.25000   1.00
Zn1      0.28280    0.21720    0.21720   1.00
Zn1      0.21720    0.28280    0.21720   1.00
Zn1      0.21720    0.21720    0.28280   1.00
Zn1      0.28280    0.28280    0.28280   1.00
O2       0.27350    0.22650    0.16180   1.00
O2       0.27350    0.16180    0.22650   1.00
O2       0.33820    0.22650    0.22650   1.00
O2       0.22650    0.27350    0.16180   1.00
O2       0.16180    0.27350    0.22650   1.00
O2       0.22650    0.33820    0.22650   1.00
O2       0.22650    0.16180    0.27350   1.00
O2       0.16180    0.22650    0.27350   1.00
O2       0.22650    0.22650    0.33820   1.00
O2       0.33820    0.27350    0.27350   1.00
O2       0.27350    0.33820    0.27350   1.00
O2       0.27350    0.27350    0.33820   1.00
C1       0.25000    0.25000    0.14480   1.00
C1       0.25000    0.14480    0.25000   1.00
C1       0.35520    0.25000    0.25000   1.00
C1       0.14480    0.25000    0.25000   1.00
C1       0.25000    0.35520    0.25000   1.00
C1       0.25000    0.25000    0.35520   1.00
O1       0.75000    0.75000    0.25000   1.00
Zn1      0.78280    0.71720    0.21720   1.00
Zn1      0.71720    0.78280    0.21720   1.00
Zn1      0.71720    0.71720    0.28280   1.00
Zn1      0.78280    0.78280    0.28280   1.00
O2       0.77350    0.72650    0.16180   1.00
O2       0.77350    0.66180    0.22650   1.00
O2       0.83820    0.72650    0.22650   1.00
O2       0.72650    0.77350    0.16180   1.00
O2       0.66180    0.77350    0.22650   1.00
O2       0.72650    0.83820    0.22650   1.00
O2       0.72650    0.66180    0.27350   1.00
O2       0.66180    0.72650    0.27350   1.00
O2       0.72650    0.72650    0.33820   1.00
O2       0.83820    0.77350    0.27350   1.00
O2       0.77350    0.83820    0.27350   1.00
O2       0.77350    0.77350    0.33820   1.00
C1       0.75000    0.75000    0.14480   1.00
C1       0.75000    0.64480    0.25000   1.00
C1       0.85520    0.75000    0.25000   1.00
C1       0.64480    0.75000    0.25000   1.00
C1       0.75000    0.85520    0.25000   1.00
C1       0.75000    0.75000    0.35520   1.00
O1       0.75000    0.25000    0.75000   1.00
Zn1      0.78280    0.21720    0.71720   1.00
Zn1      0.71720    0.28280    0.71720   1.00
Zn1      0.71720    0.21720    0.78280   1.00
Zn1      0.78280    0.28280    0.78280   1.00
O2       0.77350    0.22650    0.66180   1.00
O2       0.77350    0.16180    0.72650   1.00
O2       0.83820    0.22650    0.72650   1.00
O2       0.72650    0.27350    0.66180   1.00
O2       0.66180    0.27350    0.72650   1.00
O2       0.72650    0.33820    0.72650   1.00
O2       0.72650    0.16180    0.77350   1.00
O2       0.66180    0.22650    0.77350   1.00
O2       0.72650    0.22650    0.83820   1.00
O2       0.83820    0.27350    0.77350   1.00
O2       0.77350    0.33820    0.77350   1.00
O2       0.77350    0.27350    0.83820   1.00
C1       0.75000    0.25000    0.64480   1.00
C1       0.75000    0.14480    0.75000   1.00
C1       0.85520    0.25000    0.75000   1.00
C1       0.64480    0.25000    0.75000   1.00
C1       0.75000    0.35520    0.75000   1.00
C1       0.75000    0.25000    0.85520   1.00
O1       0.25000    0.75000    0.75000   1.00
Zn1      0.28280    0.71720    0.71720   1.00
Zn1      0.21720    0.78280    0.71720   1.00
Zn1      0.21720    0.71720    0.78280   1.00
Zn1      0.28280    0.78280    0.78280   1.00
O2       0.27350    0.72650    0.66180   1.00
O2       0.27350    0.66180    0.72650   1.00
O2       0.33820    0.72650    0.72650   1.00
O2       0.22650    0.77350    0.66180   1.00
O2       0.16180    0.77350    0.72650   1.00
O2       0.22650    0.83820    0.72650   1.00
O2       0.22650    0.66180    0.77350   1.00
O2       0.16180    0.72650    0.77350   1.00
O2       0.22650    0.72650    0.83820   1.00
O2       0.33820    0.77350    0.77350   1.00
O2       0.27350    0.83820    0.77350   1.00
O2       0.27350    0.77350    0.83820   1.00
C1       0.25000    0.75000    0.64480   1.00
C1       0.25000    0.64480    0.75000   1.00
C1       0.35520    0.75000    0.75000   1.00
C1       0.14480    0.75000    0.75000   1.00
C1       0.25000    0.85520    0.75000   1.00
C1       0.25000    0.75000    0.85520   1.00
O1       0.91500    0.91500    0.91500   1.00
Zn1      0.88220    0.94780    0.94780   1.00
Zn1      0.94780    0.88220    0.94780   1.00
Zn1      0.94780    0.94780    0.88220   1.00
Zn1      0.88220    0.88220    0.88220   1.00
O2       0.89150    0.93850    1.00320   1.00
O2       0.89150    1.00320    0.93850   1.00
O2       0.82680    0.93850    0.93850   1.00
O2       0.93850    0.89150    1.00320   1.00
O2       1.00320    0.89150    0.93850   1.00
O2       0.93850    0.82680    0.93850   1.00
O2       0.93850    1.00320    0.89150   1.00
O2       1.00320    0.93850    0.89150   1.00
O2       0.93850    0.93850    0.82680   1.00
O2       0.82680    0.89150    0.89150   1.00
O2       0.89150    0.82680    0.89150   1.00
O2       0.89150    0.89150    0.82680   1.00
C1       0.91500    0.91500    1.02020   1.00
C1       0.91500    1.02020    0.91500   1.00
C1       0.80980    0.91500    0.91500   1.00
C1       1.02020    0.91500    0.91500   1.00
C1       0.91500    0.80980    0.91500   1.00
C1       0.91500    0.91500    0.80980   1.00
O1       0.41500    0.41500    0.91500   1.00
Zn1      0.38220    0.44780    0.94780   1.00
Zn1      0.44780    0.38220    0.94780   1.00
Zn1      0.44780    0.44780    0.88220   1.00
Zn1      0.38220    0.38220    0.88220   1.00
O2       0.39150    0.43850    1.00320   1.00
O2       0.39150    0.50320    0.93850   1.00
O2       0.32680    0.43850    0.93850   1.00
O2       0.43850    0.39150    1.00320   1.00
O2       0.50320    0.39150    0.93850   1.00
O2       0.43850    0.32680    0.93850   1.00
O2       0.43850    0.50320    0.89150   1.00
O2       0.50320    0.43850    0.89150   1.00
O2       0.43850    0.43850    0.82680   1.00
O2       0.32680    0.39150    0.89150   1.00
O2       0.39150    0.32680    0.89150   1.00
O2       0.39150    0.39150    0.82680   1.00
C1       0.41500    0.41500    1.02020   1.00
C1       0.41500    0.52020    0.91500   1.00
C1       0.30980    0.41500    0.91500   1.00
C1       0.52020    0.41500    0.91500   1.00
C1       0.41500    0.30980    0.91500   1.00
C1       0.41500    0.41500    0.80980   1.00
O1       0.41500    0.91500    0.41500   1.00
Zn1      0.38220    0.94780    0.44780   1.00
Zn1      0.44780    0.88220    0.44780   1.00
Zn1      0.44780    0.94780    0.38220   1.00
Zn1      0.38220    0.88220    0.38220   1.00
O2       0.39150    0.93850    0.50320   1.00
O2       0.39150    1.00320    0.43850   1.00
O2       0.32680    0.93850    0.43850   1.00
O2       0.43850    0.89150    0.50320   1.00
O2       0.50320    0.89150    0.43850   1.00
O2       0.43850    0.82680    0.43850   1.00
O2       0.43850    1.00320    0.39150   1.00
O2       0.50320    0.93850    0.39150   1.00
O2       0.43850    0.93850    0.32680   1.00
O2       0.32680    0.89150    0.39150   1.00
O2       0.39150    0.82680    0.39150   1.00
O2       0.39150    0.89150    0.32680   1.00
C1       0.41500    0.91500    0.52020   1.00
C1       0.41500    1.02020    0.41500   1.00
C1       0.30980    0.91500    0.41500   1.00
C1       0.52020    0.91500    0.41500   1.00
C1       0.41500    0.80980    0.41500   1.00
C1       0.41500    0.91500    0.30980   1.00
O1       0.91500    0.41500    0.41500   1.00
Zn1      0.88220    0.44780    0.44780   1.00
Zn1      0.94780    0.38220    0.44780   1.00
Zn1      0.94780    0.44780    0.38220   1.00
Zn1      0.88220    0.38220    0.38220   1.00
O2       0.89150    0.43850    0.50320   1.00
O2       0.89150    0.50320    0.43850   1.00
O2       0.82680    0.43850    0.43850   1.00
O2       0.93850    0.39150    0.50320   1.00
O2       1.00320    0.39150    0.43850   1.00
O2       0.93850    0.32680    0.43850   1.00
O2       0.93850    0.50320    0.39150   1.00
O2       1.00320    0.43850    0.39150   1.00
O2       0.93850    0.43850    0.32680   1.00
O2       0.82680    0.39150    0.39150   1.00
O2       0.89150    0.32680    0.39150   1.00
O2       0.89150    0.39150    0.32680   1.00
C1       0.91500    0.41500    0.52020   1.00
C1       0.91500    0.52020    0.41500   1.00
C1       0.80980    0.41500    0.41500   1.00
C1       1.02020    0.41500    0.41500   1.00
C1       0.91500    0.30980    0.41500   1.00
C1       0.91500    0.41500    0.30980   1.00
O1       0.41500    0.41500    0.41500   1.00
Zn1      0.44780    0.38220    0.38220   1.00
Zn1      0.38220    0.44780    0.38220   1.00
Zn1      0.38220    0.38220    0.44780   1.00
Zn1      0.44780    0.44780    0.44780   1.00
O2       0.43850    0.39150    0.32680   1.00
O2       0.43850    0.32680    0.39150   1.00
O2       0.50320    0.39150    0.39150   1.00
O2       0.39150    0.43850    0.32680   1.00
O2       0.32680    0.43850    0.39150   1.00
O2       0.39150    0.50320    0.39150   1.00
O2       0.39150    0.32680    0.43850   1.00
O2       0.32680    0.39150    0.43850   1.00
O2       0.39150    0.39150    0.50320   1.00
O2       0.50320    0.43850    0.43850   1.00
O2       0.43850    0.50320    0.43850   1.00
O2       0.43850    0.43850    0.50320   1.00
C1       0.41500    0.41500    0.30980   1.00
C1       0.41500    0.30980    0.41500   1.00
C1       0.52020    0.41500    0.41500   1.00
C1       0.30980    0.41500    0.41500   1.00
C1       0.41500    0.52020    0.41500   1.00
C1       0.41500    0.41500    0.52020   1.00
O1       0.91500    0.91500    0.41500   1.00
Zn1      0.94780    0.88220    0.38220   1.00
Zn1      0.88220    0.94780    0.38220   1.00
Zn1      0.88220    0.88220    0.44780   1.00
Zn1      0.94780    0.94780    0.44780   1.00
O2       0.93850    0.89150    0.32680   1.00
O2       0.93850    0.82680    0.39150   1.00
O2       1.00320    0.89150    0.39150   1.00
O2       0.89150    0.93850    0.32680   1.00
O2       0.82680    0.93850    0.39150   1.00
O2       0.89150    1.00320    0.39150   1.00
O2       0.89150    0.82680    0.43850   1.00
O2       0.82680    0.89150    0.43850   1.00
O2       0.89150    0.89150    0.50320   1.00
O2       1.00320    0.93850    0.43850   1.00
O2       0.93850    1.00320    0.43850   1.00
O2       0.93850    0.93850    0.50320   1.00
C1       0.91500    0.91500    0.30980   1.00
C1       0.91500    0.80980    0.41500   1.00
C1       1.02020    0.91500    0.41500   1.00
C1       0.80980    0.91500    0.41500   1.00
C1       0.91500    1.02020    0.41500   1.00
C1       0.91500    0.91500    0.52020   1.00
O1       0.91500    0.41500    0.91500   1.00
Zn1      0.94780    0.38220    0.88220   1.00
Zn1      0.88220    0.44780    0.88220   1.00
Zn1      0.88220    0.38220    0.94780   1.00
Zn1      0.94780    0.44780    0.94780   1.00
O2       0.93850    0.39150    0.82680   1.00
O2       0.93850    0.32680    0.89150   1.00
O2       1.00320    0.39150    0.89150   1.00
O2       0.89150    0.43850    0.82680   1.00
O2       0.82680    0.43850    0.89150   1.00
O2       0.89150    0.50320    0.89150   1.00
O2       0.89150    0.32680    0.93850   1.00
O2       0.82680    0.39150    0.93850   1.00
O2       0.89150    0.39150    1.00320   1.00
O2       1.00320    0.43850    0.93850   1.00
O2       0.93850    0.50320    0.93850   1.00
O2       0.93850    0.43850    1.00320   1.00
C1       0.91500    0.41500    0.80980   1.00
C1       0.91500    0.30980    0.91500   1.00
C1       1.02020    0.41500    0.91500   1.00
C1       0.80980    0.41500    0.91500   1.00
C1       0.91500    0.52020    0.91500   1.00
C1       0.91500    0.41500    1.02020   1.00
O1       0.41500    0.91500    0.91500   1.00
Zn1      0.44780    0.88220    0.88220   1.00
Zn1      0.38220    0.94780    0.88220   1.00
Zn1      0.38220    0.88220    0.94780   1.00
Zn1      0.44780    0.94780    0.94780   1.00
O2       0.43850    0.89150    0.82680   1.00
O2       0.43850    0.82680    0.89150   1.00
O2       0.50320    0.89150    0.89150   1.00
O2       0.39150    0.93850    0.82680   1.00
O2       0.32680    0.93850    0.89150   1.00
O2       0.39150    1.00320    0.89150   1.00
O2       0.39150    0.82680    0.93850   1.00
O2       0.32680    0.89150    0.93850   1.00
O2       0.39150    0.89150    1.00320   1.00
O2       0.50320    0.93850    0.93850   1.00
O2       0.43850    1.00320    0.93850   1.00
O2       0.43850    0.93850    1.00320   1.00
C1       0.41500    0.91500    0.80980   1.00
C1       0.41500    0.80980    0.91500   1.00
C1       0.52020    0.91500    0.91500   1.00
C1       0.30980    0.91500    0.91500   1.00
C1       0.41500    1.02020    0.91500   1.00
C1       0.41500    0.91500    1.02020   1.00
C2       0.75000    0.75000    0.89720   1.00
C3a      0.78025    0.73253    0.91780   1.00
C3a      0.71975    0.76747    0.91780   1.00
H1       0.80129    0.72039    0.90380   1.00
H1       0.69871    0.77961    0.90380   1.00
C3a      0.78056    0.73236    0.95870   1.00
C3a      0.71944    0.76764    0.95870   1.00
H11      0.80165    0.72018    0.97250   1.00
H12      0.69835    0.77982    0.97250   1.00
C4       0.75000    0.75000    0.97940   1.00
C4       0.75000    0.75000    0.02060   1.00
C3a      0.71944    0.76764    0.04130   1.00
C3a      0.78056    0.73236    0.04130   1.00
H13      0.69835    0.77982    0.02750   1.00
H14      0.80165    0.72018    0.02750   1.00
C3a      0.71975    0.76747    0.08220   1.00
C3a      0.78025    0.73253    0.08220   1.00
H1       0.69871    0.77961    0.09620   1.00
H1       0.80129    0.72039    0.09620   1.00
C2       0.75000    0.75000    0.10280   1.00
C2       0.75000    0.89720    0.75000   1.00
C3a      0.73253    0.91780    0.78025   1.00
C3a      0.76747    0.91780    0.71975   1.00
H1       0.72039    0.90380    0.80129   1.00
H1       0.77961    0.90380    0.69871   1.00
C3a      0.73236    0.95870    0.78056   1.00
C3a      0.76764    0.95870    0.71944   1.00
H11      0.72018    0.97250    0.80165   1.00
H12      0.77982    0.97250    0.69835   1.00
C4       0.75000    0.97940    0.75000   1.00
C4       0.75000    0.02060    0.75000   1.00
C3a      0.76764    0.04130    0.71944   1.00
C3a      0.73236    0.04130    0.78056   1.00
H13      0.77982    0.02750    0.69835   1.00
H14      0.72018    0.02750    0.80165   1.00
C3a      0.76747    0.08220    0.71975   1.00
C3a      0.73253    0.08220    0.78025   1.00
H1       0.77961    0.09620    0.69871   1.00
H1       0.72039    0.09620    0.80129   1.00
C2       0.75000    0.10280    0.75000   1.00
C2       0.60280    0.75000    0.75000   1.00
C3a      0.58220    0.78025    0.76747   1.00
C3a      0.58220    0.71975    0.73253   1.00
H1       0.59620    0.80129    0.77961   1.00
H1       0.59620    0.69871    0.72039   1.00
C3a      0.54130    0.78056    0.76764   1.00
C3a      0.54130    0.71944    0.73236   1.00
H11      0.52750    0.80165    0.77982   1.00
H12      0.52750    0.69835    0.72018   1.00
C4       0.52060    0.75000    0.75000   1.00
C4       0.47940    0.75000    0.75000   1.00
C3a      0.45870    0.71944    0.73236   1.00
C3a      0.45870    0.78056    0.76764   1.00
H13      0.47250    0.69835    0.72018   1.00
H14      0.47250    0.80165    0.77982   1.00
C3a      0.41780    0.71975    0.73253   1.00
C3a      0.41780    0.78025    0.76747   1.00
H1       0.40380    0.69871    0.72039   1.00
H1       0.40380    0.80129    0.77961   1.00
C2       0.39720    0.75000    0.75000   1.00
C2       0.89720    0.75000    0.75000   1.00
C3a      0.91780    0.78025    0.73253   1.00
C3a      0.91780    0.71975    0.76747   1.00
H1       0.90380    0.80129    0.72039   1.00
H1       0.90380    0.69871    0.77961   1.00
C3a      0.95870    0.78056    0.73236   1.00
C3a      0.95870    0.71944    0.76764   1.00
H11      0.97250    0.80165    0.72018   1.00
H12      0.97250    0.69835    0.77982   1.00
C4       0.97940    0.75000    0.75000   1.00
C4       0.02060    0.75000    0.75000   1.00
C3a      0.04130    0.71944    0.76764   1.00
C3a      0.04130    0.78056    0.73236   1.00
H13      0.02750    0.69835    0.77982   1.00
H14      0.02750    0.80165    0.72018   1.00
C3a      0.08220    0.71975    0.76747   1.00
C3a      0.08220    0.78025    0.73253   1.00
H1       0.09620    0.69871    0.77961   1.00
H1       0.09620    0.80129    0.72039   1.00
C2       0.10280    0.75000    0.75000   1.00
C2       0.75000    0.60280    0.75000   1.00
C3a      0.76747    0.58220    0.78025   1.00
C3a      0.73253    0.58220    0.71975   1.00
H1       0.77961    0.59620    0.80129   1.00
H1       0.72039    0.59620    0.69871   1.00
C3a      0.76764    0.54130    0.78056   1.00
C3a      0.73236    0.54130    0.71944   1.00
H11      0.77982    0.52750    0.80165   1.00
H12      0.72018    0.52750    0.69835   1.00
C4       0.75000    0.52060    0.75000   1.00
C4       0.75000    0.47940    0.75000   1.00
C3a      0.73236    0.45870    0.71944   1.00
C3a      0.76764    0.45870    0.78056   1.00
H13      0.72018    0.47250    0.69835   1.00
H14      0.77982    0.47250    0.80165   1.00
C3a      0.73253    0.41780    0.71975   1.00
C3a      0.76747    0.41780    0.78025   1.00
H1       0.72039    0.40380    0.69871   1.00
H1       0.77961    0.40380    0.80129   1.00
C2       0.75000    0.39720    0.75000   1.00
C2       0.75000    0.75000    0.60280   1.00
C3a      0.78025    0.76747    0.58220   1.00
C3a      0.71975    0.73253    0.58220   1.00
H1       0.80129    0.77961    0.59620   1.00
H1       0.69871    0.72039    0.59620   1.00
C3a      0.78056    0.76764    0.54130   1.00
C3a      0.71944    0.73236    0.54130   1.00
H11      0.80165    0.77982    0.52750   1.00
H12      0.69835    0.72018    0.52750   1.00
C4       0.75000    0.75000    0.52060   1.00
C4       0.75000    0.75000    0.47940   1.00
C3a      0.71944    0.73236    0.45870   1.00
C3a      0.78056    0.76764    0.45870   1.00
H13      0.69835    0.72018    0.47250   1.00
H14      0.80165    0.77982    0.47250   1.00
C3a      0.71975    0.73253    0.41780   1.00
C3a      0.78025    0.76747    0.41780   1.00
H1       0.69871    0.72039    0.40380   1.00
H1       0.80129    0.77961    0.40380   1.00
C2       0.75000    0.75000    0.39720   1.00
C2       0.25000    0.25000    0.89720   1.00
C3a      0.28025    0.23253    0.91780   1.00
C3a      0.21975    0.26747    0.91780   1.00
H1       0.30129    0.22039    0.90380   1.00
H1       0.19871    0.27961    0.90380   1.00
C3a      0.28056    0.23236    0.95870   1.00
C3a      0.21944    0.26764    0.95870   1.00
H11      0.30165    0.22018    0.97250   1.00
H12      0.19835    0.27982    0.97250   1.00
C4       0.25000    0.25000    0.97940   1.00
C4       0.25000    0.25000    0.02060   1.00
C3a      0.21944    0.26764    0.04130   1.00
C3a      0.28056    0.23236    0.04130   1.00
H13      0.19835    0.27982    0.02750   1.00
H14      0.30165    0.22018    0.02750   1.00
C3a      0.21975    0.26747    0.08220   1.00
C3a      0.28025    0.23253    0.08220   1.00
H1       0.19871    0.27961    0.09620   1.00
H1       0.30129    0.22039    0.09620   1.00
C2       0.25000    0.25000    0.10280   1.00
C2       0.25000    0.39720    0.75000   1.00
C3a      0.23253    0.41780    0.78025   1.00
C3a      0.26747    0.41780    0.71975   1.00
H1       0.22039    0.40380    0.80129   1.00
H1       0.27961    0.40380    0.69871   1.00
C3a      0.23236    0.45870    0.78056   1.00
C3a      0.26764    0.45870    0.71944   1.00
H11      0.22018    0.47250    0.80165   1.00
H12      0.27982    0.47250    0.69835   1.00
C4       0.25000    0.47940    0.75000   1.00
C4       0.25000    0.52060    0.75000   1.00
C3a      0.26764    0.54130    0.71944   1.00
C3a      0.23236    0.54130    0.78056   1.00
H13      0.27982    0.52750    0.69835   1.00
H14      0.22018    0.52750    0.80165   1.00
C3a      0.26747    0.58220    0.71975   1.00
C3a      0.23253    0.58220    0.78025   1.00
H1       0.27961    0.59620    0.69871   1.00
H1       0.22039    0.59620    0.80129   1.00
C2       0.25000    0.60280    0.75000   1.00
C2       0.10280    0.25000    0.75000   1.00
C3a      0.08220    0.28025    0.76747   1.00
C3a      0.08220    0.21975    0.73253   1.00
H1       0.09620    0.30129    0.77961   1.00
H1       0.09620    0.19871    0.72039   1.00
C3a      0.04130    0.28056    0.76764   1.00
C3a      0.04130    0.21944    0.73236   1.00
H11      0.02750    0.30165    0.77982   1.00
H12      0.02750    0.19835    0.72018   1.00
C4       0.02060    0.25000    0.75000   1.00
C4       0.97940    0.25000    0.75000   1.00
C3a      0.95870    0.21944    0.73236   1.00
C3a      0.95870    0.28056    0.76764   1.00
H13      0.97250    0.19835    0.72018   1.00
H14      0.97250    0.30165    0.77982   1.00
C3a      0.91780    0.21975    0.73253   1.00
C3a      0.91780    0.28025    0.76747   1.00
H1       0.90380    0.19871    0.72039   1.00
H1       0.90380    0.30129    0.77961   1.00
C2       0.89720    0.25000    0.75000   1.00
C2       0.39720    0.25000    0.75000   1.00
C3a      0.41780    0.28025    0.73253   1.00
C3a      0.41780    0.21975    0.76747   1.00
H1       0.40380    0.30129    0.72039   1.00
H1       0.40380    0.19871    0.77961   1.00
C3a      0.45870    0.28056    0.73236   1.00
C3a      0.45870    0.21944    0.76764   1.00
H11      0.47250    0.30165    0.72018   1.00
H12      0.47250    0.19835    0.77982   1.00
C4       0.47940    0.25000    0.75000   1.00
C4       0.52060    0.25000    0.75000   1.00
C3a      0.54130    0.21944    0.76764   1.00
C3a      0.54130    0.28056    0.73236   1.00
H13      0.52750    0.19835    0.77982   1.00
H14      0.52750    0.30165    0.72018   1.00
C3a      0.58220    0.21975    0.76747   1.00
C3a      0.58220    0.28025    0.73253   1.00
H1       0.59620    0.19871    0.77961   1.00
H1       0.59620    0.30129    0.72039   1.00
C2       0.60280    0.25000    0.75000   1.00
C2       0.25000    0.10280    0.75000   1.00
C3a      0.26747    0.08220    0.78025   1.00
C3a      0.23253    0.08220    0.71975   1.00
H1       0.27961    0.09620    0.80129   1.00
H1       0.22039    0.09620    0.69871   1.00
C3a      0.26764    0.04130    0.78056   1.00
C3a      0.23236    0.04130    0.71944   1.00
H11      0.27982    0.02750    0.80165   1.00
H12      0.22018    0.02750    0.69835   1.00
C4       0.25000    0.02060    0.75000   1.00
C4       0.25000    0.97940    0.75000   1.00
C3a      0.23236    0.95870    0.71944   1.00
C3a      0.26764    0.95870    0.78056   1.00
H13      0.22018    0.97250    0.69835   1.00
H14      0.27982    0.97250    0.80165   1.00
C3a      0.23253    0.91780    0.71975   1.00
C3a      0.26747    0.91780    0.78025   1.00
H1       0.22039    0.90380    0.69871   1.00
H1       0.27961    0.90380    0.80129   1.00
C2       0.25000    0.89720    0.75000   1.00
C2       0.25000    0.25000    0.60280   1.00
C3a      0.28025    0.26747    0.58220   1.00
C3a      0.21975    0.23253    0.58220   1.00
H1       0.30129    0.27961    0.59620   1.00
H1       0.19871    0.22039    0.59620   1.00
C3a      0.28056    0.26764    0.54130   1.00
C3a      0.21944    0.23236    0.54130   1.00
H11      0.30165    0.27982    0.52750   1.00
H12      0.19835    0.22018    0.52750   1.00
C4       0.25000    0.25000    0.52060   1.00
C4       0.25000    0.25000    0.47940   1.00
C3a      0.21944    0.23236    0.45870   1.00
C3a      0.28056    0.26764    0.45870   1.00
H13      0.19835    0.22018    0.47250   1.00
H14      0.30165    0.27982    0.47250   1.00
C3a      0.21975    0.23253    0.41780   1.00
C3a      0.28025    0.26747    0.41780   1.00
H1       0.19871    0.22039    0.40380   1.00
H1       0.30129    0.27961    0.40380   1.00
C2       0.25000    0.25000    0.39720   1.00
C2       0.25000    0.75000    0.39720   1.00
C3a      0.28025    0.73253    0.41780   1.00
C3a      0.21975    0.76747    0.41780   1.00
H1       0.30129    0.72039    0.40380   1.00
H1       0.19871    0.77961    0.40380   1.00
C3a      0.28056    0.73236    0.45870   1.00
C3a      0.21944    0.76764    0.45870   1.00
H11      0.30165    0.72018    0.47250   1.00
H12      0.19835    0.77982    0.47250   1.00
C4       0.25000    0.75000    0.47940   1.00
C4       0.25000    0.75000    0.52060   1.00
C3a      0.21944    0.76764    0.54130   1.00
C3a      0.28056    0.73236    0.54130   1.00
H13      0.19835    0.77982    0.52750   1.00
H14      0.30165    0.72018    0.52750   1.00
C3a      0.21975    0.76747    0.58220   1.00
C3a      0.28025    0.73253    0.58220   1.00
H1       0.19871    0.77961    0.59620   1.00
H1       0.30129    0.72039    0.59620   1.00
C2       0.25000    0.75000    0.60280   1.00
C2       0.25000    0.89720    0.25000   1.00
C3a      0.23253    0.91780    0.28025   1.00
C3a      0.26747    0.91780    0.21975   1.00
H1       0.22039    0.90380    0.30129   1.00
H1       0.27961    0.90380    0.19871   1.00
C3a      0.23236    0.95870    0.28056   1.00
C3a      0.26764    0.95870    0.21944   1.00
H11      0.22018    0.97250    0.30165   1.00
H12      0.27982    0.97250    0.19835   1.00
C4       0.25000    0.97940    0.25000   1.00
C4       0.25000    0.02060    0.25000   1.00
C3a      0.26764    0.04130    0.21944   1.00
C3a      0.23236    0.04130    0.28056   1.00
H13      0.27982    0.02750    0.19835   1.00
H14      0.22018    0.02750    0.30165   1.00
C3a      0.26747    0.08220    0.21975   1.00
C3a      0.23253    0.08220    0.28025   1.00
H1       0.27961    0.09620    0.19871   1.00
H1       0.22039    0.09620    0.30129   1.00
C2       0.25000    0.10280    0.25000   1.00
C2       0.10280    0.75000    0.25000   1.00
C3a      0.08220    0.78025    0.26747   1.00
C3a      0.08220    0.71975    0.23253   1.00
H1       0.09620    0.80129    0.27961   1.00
H1       0.09620    0.69871    0.22039   1.00
C3a      0.04130    0.78056    0.26764   1.00
C3a      0.04130    0.71944    0.23236   1.00
H11      0.02750    0.80165    0.27982   1.00
H12      0.02750    0.69835    0.22018   1.00
C4       0.02060    0.75000    0.25000   1.00
C4       0.97940    0.75000    0.25000   1.00
C3a      0.95870    0.71944    0.23236   1.00
C3a      0.95870    0.78056    0.26764   1.00
H13      0.97250    0.69835    0.22018   1.00
H14      0.97250    0.80165    0.27982   1.00
C3a      0.91780    0.71975    0.23253   1.00
C3a      0.91780    0.78025    0.26747   1.00
H1       0.90380    0.69871    0.22039   1.00
H1       0.90380    0.80129    0.27961   1.00
C2       0.89720    0.75000    0.25000   1.00
C2       0.39720    0.75000    0.25000   1.00
C3a      0.41780    0.78025    0.23253   1.00
C3a      0.41780    0.71975    0.26747   1.00
H1       0.40380    0.80129    0.22039   1.00
H1       0.40380    0.69871    0.27961   1.00
C3a      0.45870    0.78056    0.23236   1.00
C3a      0.45870    0.71944    0.26764   1.00
H11      0.47250    0.80165    0.22018   1.00
H12      0.47250    0.69835    0.27982   1.00
C4       0.47940    0.75000    0.25000   1.00
C4       0.52060    0.75000    0.25000   1.00
C3a      0.54130    0.71944    0.26764   1.00
C3a      0.54130    0.78056    0.23236   1.00
H13      0.52750    0.69835    0.27982   1.00
H14      0.52750    0.80165    0.22018   1.00
C3a      0.58220    0.71975    0.26747   1.00
C3a      0.58220    0.78025    0.23253   1.00
H1       0.59620    0.69871    0.27961   1.00
H1       0.59620    0.80129    0.22039   1.00
C2       0.60280    0.75000    0.25000   1.00
C2       0.25000    0.60280    0.25000   1.00
C3a      0.26747    0.58220    0.28025   1.00
C3a      0.23253    0.58220    0.21975   1.00
H1       0.27961    0.59620    0.30129   1.00
H1       0.22039    0.59620    0.19871   1.00
C3a      0.26764    0.54130    0.28056   1.00
C3a      0.23236    0.54130    0.21944   1.00
H11      0.27982    0.52750    0.30165   1.00
H12      0.22018    0.52750    0.19835   1.00
C4       0.25000    0.52060    0.25000   1.00
C4       0.25000    0.47940    0.25000   1.00
C3a      0.23236    0.45870    0.21944   1.00
C3a      0.26764    0.45870    0.28056   1.00
H13      0.22018    0.47250    0.19835   1.00
H14      0.27982    0.47250    0.30165   1.00
C3a      0.23253    0.41780    0.21975   1.00
C3a      0.26747    0.41780    0.28025   1.00
H1       0.22039    0.40380    0.19871   1.00
H1       0.27961    0.40380    0.30129   1.00
C2       0.25000    0.39720    0.25000   1.00
C2       0.25000    0.75000    0.10280   1.00
C3a      0.28025    0.76747    0.08220   1.00
C3a      0.21975    0.73253    0.08220   1.00
H1       0.30129    0.77961    0.09620   1.00
H1       0.19871    0.72039    0.09620   1.00
C3a      0.28056    0.76764    0.04130   1.00
C3a      0.21944    0.73236    0.04130   1.00
H11      0.30165    0.77982    0.02750   1.00
H12      0.19835    0.72018    0.02750   1.00
C4       0.25000    0.75000    0.02060   1.00
C4       0.25000    0.75000    0.97940   1.00
C3a      0.21944    0.73236    0.95870   1.00
C3a      0.28056    0.76764    0.95870   1.00
H13      0.19835    0.72018    0.97250   1.00
H14      0.30165    0.77982    0.97250   1.00
C3a      0.21975    0.73253    0.91780   1.00
C3a      0.28025    0.76747    0.91780   1.00
H1       0.19871    0.72039    0.90380   1.00
H1       0.30129    0.77961    0.90380   1.00
C2       0.25000    0.75000    0.89720   1.00
C2       0.75000    0.25000    0.39720   1.00
C3a      0.78025    0.23253    0.41780   1.00
C3a      0.71975    0.26747    0.41780   1.00
H1       0.80129    0.22039    0.40380   1.00
H1       0.69871    0.27961    0.40380   1.00
C3a      0.78056    0.23236    0.45870   1.00
C3a      0.71944    0.26764    0.45870   1.00
H11      0.80165    0.22018    0.47250   1.00
H12      0.69835    0.27982    0.47250   1.00
C4       0.75000    0.25000    0.47940   1.00
C4       0.75000    0.25000    0.52060   1.00
C3a      0.71944    0.26764    0.54130   1.00
C3a      0.78056    0.23236    0.54130   1.00
H13      0.69835    0.27982    0.52750   1.00
H14      0.80165    0.22018    0.52750   1.00
C3a      0.71975    0.26747    0.58220   1.00
C3a      0.78025    0.23253    0.58220   1.00
H1       0.69871    0.27961    0.59620   1.00
H1       0.80129    0.22039    0.59620   1.00
C2       0.75000    0.25000    0.60280   1.00
C2       0.75000    0.39720    0.25000   1.00
C3a      0.73253    0.41780    0.28025   1.00
C3a      0.76747    0.41780    0.21975   1.00
H1       0.72039    0.40380    0.30129   1.00
H1       0.77961    0.40380    0.19871   1.00
C3a      0.73236    0.45870    0.28056   1.00
C3a      0.76764    0.45870    0.21944   1.00
H11      0.72018    0.47250    0.30165   1.00
H12      0.77982    0.47250    0.19835   1.00
C4       0.75000    0.47940    0.25000   1.00
C4       0.75000    0.52060    0.25000   1.00
C3a      0.76764    0.54130    0.21944   1.00
C3a      0.73236    0.54130    0.28056   1.00
H13      0.77982    0.52750    0.19835   1.00
H14      0.72018    0.52750    0.30165   1.00
C3a      0.76747    0.58220    0.21975   1.00
C3a      0.73253    0.58220    0.28025   1.00
H1       0.77961    0.59620    0.19871   1.00
H1       0.72039    0.59620    0.30129   1.00
C2       0.75000    0.60280    0.25000   1.00
C2       0.60280    0.25000    0.25000   1.00
C3a      0.58220    0.28025    0.26747   1.00
C3a      0.58220    0.21975    0.23253   1.00
H1       0.59620    0.30129    0.27961   1.00
H1       0.59620    0.19871    0.22039   1.00
C3a      0.54130    0.28056    0.26764   1.00
C3a      0.54130    0.21944    0.23236   1.00
H11      0.52750    0.30165    0.27982   1.00
H12      0.52750    0.19835    0.22018   1.00
C4       0.52060    0.25000    0.25000   1.00
C4       0.47940    0.25000    0.25000   1.00
C3a      0.45870    0.21944    0.23236   1.00
C3a      0.45870    0.28056    0.26764   1.00
H13      0.47250    0.19835    0.22018   1.00
H14      0.47250    0.30165    0.27982   1.00
C3a      0.41780    0.21975    0.23253   1.00
C3a      0.41780    0.28025    0.26747   1.00
H1       0.40380    0.19871    0.22039   1.00
H1       0.40380    0.30129    0.27961   1.00
C2       0.39720    0.25000    0.25000   1.00
C2       0.89720    0.25000    0.25000   1.00
C3a      0.91780    0.28025    0.23253   1.00
C3a      0.91780    0.21975    0.26747   1.00
H1       0.90380    0.30129    0.22039   1.00
H1       0.90380    0.19871    0.27961   1.00
C3a      0.95870    0.28056    0.23236   1.00
C3a      0.95870    0.21944    0.26764   1.00
H11      0.97250    0.30165    0.22018   1.00
H12      0.97250    0.19835    0.27982   1.00
C4       0.97940    0.25000    0.25000   1.00
C4       0.02060    0.25000    0.25000   1.00
C3a      0.04130    0.21944    0.26764   1.00
C3a      0.04130    0.28056    0.23236   1.00
H13      0.02750    0.19835    0.27982   1.00
H14      0.02750    0.30165    0.22018   1.00
C3a      0.08220    0.21975    0.26747   1.00
C3a      0.08220    0.28025    0.23253   1.00
H1       0.09620    0.19871    0.27961   1.00
H1       0.09620    0.30129    0.22039   1.00
C2       0.10280    0.25000    0.25000   1.00
C2       0.75000    0.10280    0.25000   1.00
C3a      0.76747    0.08220    0.28025   1.00
C3a      0.73253    0.08220    0.21975   1.00
H1       0.77961    0.09620    0.30129   1.00
H1       0.72039    0.09620    0.19871   1.00
C3a      0.76764    0.04130    0.28056   1.00
C3a      0.73236    0.04130    0.21944   1.00
H11      0.77982    0.02750    0.30165   1.00
H12      0.72018    0.02750    0.19835   1.00
C4       0.75000    0.02060    0.25000   1.00
C4       0.75000    0.97940    0.25000   1.00
C3a      0.73236    0.95870    0.21944   1.00
C3a      0.76764    0.95870    0.28056   1.00
H13      0.72018    0.97250    0.19835   1.00
H14      0.77982    0.97250    0.30165   1.00
C3a      0.73253    0.91780    0.21975   1.00
C3a      0.76747    0.91780    0.28025   1.00
H1       0.72039    0.90380    0.19871   1.00
H1       0.77961    0.90380    0.30129   1.00
C2       0.75000    0.89720    0.25000   1.00
C2       0.75000    0.25000    0.10280   1.00
C3a      0.78025    0.26747    0.08220   1.00
C3a      0.71975    0.23253    0.08220   1.00
H1       0.80129    0.27961    0.09620   1.00
H1       0.69871    0.22039    0.09620   1.00
C3a      0.78056    0.26764    0.04130   1.00
C3a      0.71944    0.23236    0.04130   1.00
H11      0.80165    0.27982    0.02750   1.00
H12      0.69835    0.22018    0.02750   1.00
C4       0.75000    0.25000    0.02060   1.00
C4       0.75000    0.25000    0.97940   1.00
C3a      0.71944    0.23236    0.95870   1.00
C3a      0.78056    0.26764    0.95870   1.00
H13      0.69835    0.22018    0.97250   1.00
H14      0.80165    0.27982    0.97250   1.00
C3a      0.71975    0.23253    0.91780   1.00
C3a      0.78025    0.26747    0.91780   1.00
H1       0.69871    0.22039    0.90380   1.00
H1       0.80129    0.27961    0.90380   1.00
C2       0.75000    0.25000    0.89720   1.00
C2       0.91500    0.91500    1.06220   1.00
C3a      0.94525    0.89753    1.08280   1.00
C3a      0.88475    0.93247    1.08280   1.00
H1       0.96629    0.88539    1.06880   1.00
H1       0.86371    0.94461    1.06880   1.00
C3a      0.94556    0.89736    1.12370   1.00
C3a      0.88444    0.93264    1.12370   1.00
H11      0.96665    0.88518    1.13750   1.00
H12      0.86335    0.94482    1.13750   1.00
C4       0.91500    0.91500    1.14440   1.00
C4       0.91500    0.91500    0.18560   1.00
C3a      0.88444    0.93264    0.20630   1.00
C3a      0.94556    0.89736    0.20630   1.00
H13      0.86335    0.94482    0.19250   1.00
H14      0.96665    0.88518    0.19250   1.00
C3a      0.88475    0.93247    0.24720   1.00
C3a      0.94525    0.89753    0.24720   1.00
H1       0.86371    0.94461    0.26120   1.00
H1       0.96629    0.88539    0.26120   1.00
C2       0.91500    0.91500    0.26780   1.00
C2       0.91500    1.06220    0.91500   1.00
C3a      0.89753    1.08280    0.94525   1.00
C3a      0.93247    1.08280    0.88475   1.00
H1       0.88539    1.06880    0.96629   1.00
H1       0.94461    1.06880    0.86371   1.00
C3a      0.89736    1.12370    0.94556   1.00
C3a      0.93264    1.12370    0.88444   1.00
H11      0.88518    1.13750    0.96665   1.00
H12      0.94482    1.13750    0.86335   1.00
C4       0.91500    1.14440    0.91500   1.00
C4       0.91500    0.18560    0.91500   1.00
C3a      0.93264    0.20630    0.88444   1.00
C3a      0.89736    0.20630    0.94556   1.00
H13      0.94482    0.19250    0.86335   1.00
H14      0.88518    0.19250    0.96665   1.00
C3a      0.93247    0.24720    0.88475   1.00
C3a      0.89753    0.24720    0.94525   1.00
H1       0.94461    0.26120    0.86371   1.00
H1       0.88539    0.26120    0.96629   1.00
C2       0.91500    0.26780    0.91500   1.00
C2       0.76780    0.91500    0.91500   1.00
C3a      0.74720    0.94525    0.93247   1.00
C3a      0.74720    0.88475    0.89753   1.00
H1       0.76120    0.96629    0.94461   1.00
H1       0.76120    0.86371    0.88539   1.00
C3a      0.70630    0.94556    0.93264   1.00
C3a      0.70630    0.88444    0.89736   1.00
H11      0.69250    0.96665    0.94482   1.00
H12      0.69250    0.86335    0.88518   1.00
C4       0.68560    0.91500    0.91500   1.00
C4       0.64440    0.91500    0.91500   1.00
C3a      0.62370    0.88444    0.89736   1.00
C3a      0.62370    0.94556    0.93264   1.00
H13      0.63750    0.86335    0.88518   1.00
H14      0.63750    0.96665    0.94482   1.00
C3a      0.58280    0.88475    0.89753   1.00
C3a      0.58280    0.94525    0.93247   1.00
H1       0.56880    0.86371    0.88539   1.00
H1       0.56880    0.96629    0.94461   1.00
C2       0.56220    0.91500    0.91500   1.00
C2       1.06220    0.91500    0.91500   1.00
C3a      1.08280    0.94525    0.89753   1.00
C3a      1.08280    0.88475    0.93247   1.00
H1       1.06880    0.96629    0.88539   1.00
H1       1.06880    0.86371    0.94461   1.00
C3a      1.12370    0.94556    0.89736   1.00
C3a      1.12370    0.88444    0.93264   1.00
H11      1.13750    0.96665    0.88518   1.00
H12      1.13750    0.86335    0.94482   1.00
C4       1.14440    0.91500    0.91500   1.00
C4       0.18560    0.91500    0.91500   1.00
C3a      0.20630    0.88444    0.93264   1.00
C3a      0.20630    0.94556    0.89736   1.00
H13      0.19250    0.86335    0.94482   1.00
H14      0.19250    0.96665    0.88518   1.00
C3a      0.24720    0.88475    0.93247   1.00
C3a      0.24720    0.94525    0.89753   1.00
H1       0.26120    0.86371    0.94461   1.00
H1       0.26120    0.96629    0.88539   1.00
C2       0.26780    0.91500    0.91500   1.00
C2       0.91500    0.76780    0.91500   1.00
C3a      0.93247    0.74720    0.94525   1.00
C3a      0.89753    0.74720    0.88475   1.00
H1       0.94461    0.76120    0.96629   1.00
H1       0.88539    0.76120    0.86371   1.00
C3a      0.93264    0.70630    0.94556   1.00
C3a      0.89736    0.70630    0.88444   1.00
H11      0.94482    0.69250    0.96665   1.00
H12      0.88518    0.69250    0.86335   1.00
C4       0.91500    0.68560    0.91500   1.00
C4       0.91500    0.64440    0.91500   1.00
C3a      0.89736    0.62370    0.88444   1.00
C3a      0.93264    0.62370    0.94556   1.00
H13      0.88518    0.63750    0.86335   1.00
H14      0.94482    0.63750    0.96665   1.00
C3a      0.89753    0.58280    0.88475   1.00
C3a      0.93247    0.58280    0.94525   1.00
H1       0.88539    0.56880    0.86371   1.00
H1       0.94461    0.56880    0.96629   1.00
C2       0.91500    0.56220    0.91500   1.00
C2       0.91500    0.91500    0.76780   1.00
C3a      0.94525    0.93247    0.74720   1.00
C3a      0.88475    0.89753    0.74720   1.00
H1       0.96629    0.94461    0.76120   1.00
H1       0.86371    0.88539    0.76120   1.00
C3a      0.94556    0.93264    0.70630   1.00
C3a      0.88444    0.89736    0.70630   1.00
H11      0.96665    0.94482    0.69250   1.00
H12      0.86335    0.88518    0.69250   1.00
C4       0.91500    0.91500    0.68560   1.00
C4       0.91500    0.91500    0.64440   1.00
C3a      0.88444    0.89736    0.62370   1.00
C3a      0.94556    0.93264    0.62370   1.00
H13      0.86335    0.88518    0.63750   1.00
H14      0.96665    0.94482    0.63750   1.00
C3a      0.88475    0.89753    0.58280   1.00
C3a      0.94525    0.93247    0.58280   1.00
H1       0.86371    0.88539    0.56880   1.00
H1       0.96629    0.94461    0.56880   1.00
C2       0.91500    0.91500    0.56220   1.00
C2       0.41500    0.41500    1.06220   1.00
C3a      0.44525    0.39753    1.08280   1.00
C3a      0.38475    0.43247    1.08280   1.00
H1       0.46629    0.38539    1.06880   1.00
H1       0.36371    0.44461    1.06880   1.00
C3a      0.44556    0.39736    1.12370   1.00
C3a      0.38444    0.43264    1.12370   1.00
H11      0.46665    0.38518    1.13750   1.00
H12      0.36335    0.44482    1.13750   1.00
C4       0.41500    0.41500    1.14440   1.00
C4       0.41500    0.41500    0.18560   1.00
C3a      0.38444    0.43264    0.20630   1.00
C3a      0.44556    0.39736    0.20630   1.00
H13      0.36335    0.44482    0.19250   1.00
H14      0.46665    0.38518    0.19250   1.00
C3a      0.38475    0.43247    0.24720   1.00
C3a      0.44525    0.39753    0.24720   1.00
H1       0.36371    0.44461    0.26120   1.00
H1       0.46629    0.38539    0.26120   1.00
C2       0.41500    0.41500    0.26780   1.00
C2       0.41500    0.56220    0.91500   1.00
C3a      0.39753    0.58280    0.94525   1.00
C3a      0.43247    0.58280    0.88475   1.00
H1       0.38539    0.56880    0.96629   1.00
H1       0.44461    0.56880    0.86371   1.00
C3a      0.39736    0.62370    0.94556   1.00
C3a      0.43264    0.62370    0.88444   1.00
H11      0.38518    0.63750    0.96665   1.00
H12      0.44482    0.63750    0.86335   1.00
C4       0.41500    0.64440    0.91500   1.00
C4       0.41500    0.68560    0.91500   1.00
C3a      0.43264    0.70630    0.88444   1.00
C3a      0.39736    0.70630    0.94556   1.00
H13      0.44482    0.69250    0.86335   1.00
H14      0.38518    0.69250    0.96665   1.00
C3a      0.43247    0.74720    0.88475   1.00
C3a      0.39753    0.74720    0.94525   1.00
H1       0.44461    0.76120    0.86371   1.00
H1       0.38539    0.76120    0.96629   1.00
C2       0.41500    0.76780    0.91500   1.00
C2       0.26780    0.41500    0.91500   1.00
C3a      0.24720    0.44525    0.93247   1.00
C3a      0.24720    0.38475    0.89753   1.00
H1       0.26120    0.46629    0.94461   1.00
H1       0.26120    0.36371    0.88539   1.00
C3a      0.20630    0.44556    0.93264   1.00
C3a      0.20630    0.38444    0.89736   1.00
H11      0.19250    0.46665    0.94482   1.00
H12      0.19250    0.36335    0.88518   1.00
C4       0.18560    0.41500    0.91500   1.00
C4       1.14440    0.41500    0.91500   1.00
C3a      1.12370    0.38444    0.89736   1.00
C3a      1.12370    0.44556    0.93264   1.00
H13      1.13750    0.36335    0.88518   1.00
H14      1.13750    0.46665    0.94482   1.00
C3a      1.08280    0.38475    0.89753   1.00
C3a      1.08280    0.44525    0.93247   1.00
H1       1.06880    0.36371    0.88539   1.00
H1       1.06880    0.46629    0.94461   1.00
C2       1.06220    0.41500    0.91500   1.00
C2       0.56220    0.41500    0.91500   1.00
C3a      0.58280    0.44525    0.89753   1.00
C3a      0.58280    0.38475    0.93247   1.00
H1       0.56880    0.46629    0.88539   1.00
H1       0.56880    0.36371    0.94461   1.00
C3a      0.62370    0.44556    0.89736   1.00
C3a      0.62370    0.38444    0.93264   1.00
H11      0.63750    0.46665    0.88518   1.00
H12      0.63750    0.36335    0.94482   1.00
C4       0.64440    0.41500    0.91500   1.00
C4       0.68560    0.41500    0.91500   1.00
C3a      0.70630    0.38444    0.93264   1.00
C3a      0.70630    0.44556    0.89736   1.00
H13      0.69250    0.36335    0.94482   1.00
H14      0.69250    0.46665    0.88518   1.00
C3a      0.74720    0.38475    0.93247   1.00
C3a      0.74720    0.44525    0.89753   1.00
H1       0.76120    0.36371    0.94461   1.00
H1       0.76120    0.46629    0.88539   1.00
C2       0.76780    0.41500    0.91500   1.00
C2       0.41500    0.26780    0.91500   1.00
C3a      0.43247    0.24720    0.94525   1.00
C3a      0.39753    0.24720    0.88475   1.00
H1       0.44461    0.26120    0.96629   1.00
H1       0.38539    0.26120    0.86371   1.00
C3a      0.43264    0.20630    0.94556   1.00
C3a      0.39736    0.20630    0.88444   1.00
H11      0.44482    0.19250    0.96665   1.00
H12      0.38518    0.19250    0.86335   1.00
C4       0.41500    0.18560    0.91500   1.00
C4       0.41500    1.14440    0.91500   1.00
C3a      0.39736    1.12370    0.88444   1.00
C3a      0.43264    1.12370    0.94556   1.00
H13      0.38518    1.13750    0.86335   1.00
H14      0.44482    1.13750    0.96665   1.00
C3a      0.39753    1.08280    0.88475   1.00
C3a      0.43247    1.08280    0.94525   1.00
H1       0.38539    1.06880    0.86371   1.00
H1       0.44461    1.06880    0.96629   1.00
C2       0.41500    1.06220    0.91500   1.00
C2       0.41500    0.41500    0.76780   1.00
C3a      0.44525    0.43247    0.74720   1.00
C3a      0.38475    0.39753    0.74720   1.00
H1       0.46629    0.44461    0.76120   1.00
H1       0.36371    0.38539    0.76120   1.00
C3a      0.44556    0.43264    0.70630   1.00
C3a      0.38444    0.39736    0.70630   1.00
H11      0.46665    0.44482    0.69250   1.00
H12      0.36335    0.38518    0.69250   1.00
C4       0.41500    0.41500    0.68560   1.00
C4       0.41500    0.41500    0.64440   1.00
C3a      0.38444    0.39736    0.62370   1.00
C3a      0.44556    0.43264    0.62370   1.00
H13      0.36335    0.38518    0.63750   1.00
H14      0.46665    0.44482    0.63750   1.00
C3a      0.38475    0.39753    0.58280   1.00
C3a      0.44525    0.43247    0.58280   1.00
H1       0.36371    0.38539    0.56880   1.00
H1       0.46629    0.44461    0.56880   1.00
C2       0.41500    0.41500    0.56220   1.00
C2       0.41500    0.91500    0.56220   1.00
C3a      0.44525    0.89753    0.58280   1.00
C3a      0.38475    0.93247    0.58280   1.00
H1       0.46629    0.88539    0.56880   1.00
H1       0.36371    0.94461    0.56880   1.00
C3a      0.44556    0.89736    0.62370   1.00
C3a      0.38444    0.93264    0.62370   1.00
H11      0.46665    0.88518    0.63750   1.00
H12      0.36335    0.94482    0.63750   1.00
C4       0.41500    0.91500    0.64440   1.00
C4       0.41500    0.91500    0.68560   1.00
C3a      0.38444    0.93264    0.70630   1.00
C3a      0.44556    0.89736    0.70630   1.00
H13      0.36335    0.94482    0.69250   1.00
H14      0.46665    0.88518    0.69250   1.00
C3a      0.38475    0.93247    0.74720   1.00
C3a      0.44525    0.89753    0.74720   1.00
H1       0.36371    0.94461    0.76120   1.00
H1       0.46629    0.88539    0.76120   1.00
C2       0.41500    0.91500    0.76780   1.00
C2       0.41500    1.06220    0.41500   1.00
C3a      0.39753    1.08280    0.44525   1.00
C3a      0.43247    1.08280    0.38475   1.00
H1       0.38539    1.06880    0.46629   1.00
H1       0.44461    1.06880    0.36371   1.00
C3a      0.39736    1.12370    0.44556   1.00
C3a      0.43264    1.12370    0.38444   1.00
H11      0.38518    1.13750    0.46665   1.00
H12      0.44482    1.13750    0.36335   1.00
C4       0.41500    1.14440    0.41500   1.00
C4       0.41500    0.18560    0.41500   1.00
C3a      0.43264    0.20630    0.38444   1.00
C3a      0.39736    0.20630    0.44556   1.00
H13      0.44482    0.19250    0.36335   1.00
H14      0.38518    0.19250    0.46665   1.00
C3a      0.43247    0.24720    0.38475   1.00
C3a      0.39753    0.24720    0.44525   1.00
H1       0.44461    0.26120    0.36371   1.00
H1       0.38539    0.26120    0.46629   1.00
C2       0.41500    0.26780    0.41500   1.00
C2       0.26780    0.91500    0.41500   1.00
C3a      0.24720    0.94525    0.43247   1.00
C3a      0.24720    0.88475    0.39753   1.00
H1       0.26120    0.96629    0.44461   1.00
H1       0.26120    0.86371    0.38539   1.00
C3a      0.20630    0.94556    0.43264   1.00
C3a      0.20630    0.88444    0.39736   1.00
H11      0.19250    0.96665    0.44482   1.00
H12      0.19250    0.86335    0.38518   1.00
C4       0.18560    0.91500    0.41500   1.00
C4       1.14440    0.91500    0.41500   1.00
C3a      1.12370    0.88444    0.39736   1.00
C3a      1.12370    0.94556    0.43264   1.00
H13      1.13750    0.86335    0.38518   1.00
H14      1.13750    0.96665    0.44482   1.00
C3a      1.08280    0.88475    0.39753   1.00
C3a      1.08280    0.94525    0.43247   1.00
H1       1.06880    0.86371    0.38539   1.00
H1       1.06880    0.96629    0.44461   1.00
C2       1.06220    0.91500    0.41500   1.00
C2       0.56220    0.91500    0.41500   1.00
C3a      0.58280    0.94525    0.39753   1.00
C3a      0.58280    0.88475    0.43247   1.00
H1       0.56880    0.96629    0.38539   1.00
H1       0.56880    0.86371    0.44461   1.00
C3a      0.62370    0.94556    0.39736   1.00
C3a      0.62370    0.88444    0.43264   1.00
H11      0.63750    0.96665    0.38518   1.00
H12      0.63750    0.86335    0.44482   1.00
C4       0.64440    0.91500    0.41500   1.00
C4       0.68560    0.91500    0.41500   1.00
C3a      0.70630    0.88444    0.43264   1.00
C3a      0.70630    0.94556    0.39736   1.00
H13      0.69250    0.86335    0.44482   1.00
H14      0.69250    0.96665    0.38518   1.00
C3a      0.74720    0.88475    0.43247   1.00
C3a      0.74720    0.94525    0.39753   1.00
H1       0.76120    0.86371    0.44461   1.00
H1       0.76120    0.96629    0.38539   1.00
C2       0.76780    0.91500    0.41500   1.00
C2       0.41500    0.76780    0.41500   1.00
C3a      0.43247    0.74720    0.44525   1.00
C3a      0.39753    0.74720    0.38475   1.00
H1       0.44461    0.76120    0.46629   1.00
H1       0.38539    0.76120    0.36371   1.00
C3a      0.43264    0.70630    0.44556   1.00
C3a      0.39736    0.70630    0.38444   1.00
H11      0.44482    0.69250    0.46665   1.00
H12      0.38518    0.69250    0.36335   1.00
C4       0.41500    0.68560    0.41500   1.00
C4       0.41500    0.64440    0.41500   1.00
C3a      0.39736    0.62370    0.38444   1.00
C3a      0.43264    0.62370    0.44556   1.00
H13      0.38518    0.63750    0.36335   1.00
H14      0.44482    0.63750    0.46665   1.00
C3a      0.39753    0.58280    0.38475   1.00
C3a      0.43247    0.58280    0.44525   1.00
H1       0.38539    0.56880    0.36371   1.00
H1       0.44461    0.56880    0.46629   1.00
C2       0.41500    0.56220    0.41500   1.00
C2       0.41500    0.91500    0.26780   1.00
C3a      0.44525    0.93247    0.24720   1.00
C3a      0.38475    0.89753    0.24720   1.00
H1       0.46629    0.94461    0.26120   1.00
H1       0.36371    0.88539    0.26120   1.00
C3a      0.44556    0.93264    0.20630   1.00
C3a      0.38444    0.89736    0.20630   1.00
H11      0.46665    0.94482    0.19250   1.00
H12      0.36335    0.88518    0.19250   1.00
C4       0.41500    0.91500    0.18560   1.00
C4       0.41500    0.91500    1.14440   1.00
C3a      0.38444    0.89736    1.12370   1.00
C3a      0.44556    0.93264    1.12370   1.00
H13      0.36335    0.88518    1.13750   1.00
H14      0.46665    0.94482    1.13750   1.00
C3a      0.38475    0.89753    1.08280   1.00
C3a      0.44525    0.93247    1.08280   1.00
H1       0.36371    0.88539    1.06880   1.00
H1       0.46629    0.94461    1.06880   1.00
C2       0.41500    0.91500    1.06220   1.00
C2       0.91500    0.41500    0.56220   1.00
C3a      0.94525    0.39753    0.58280   1.00
C3a      0.88475    0.43247    0.58280   1.00
H1       0.96629    0.38539    0.56880   1.00
H1       0.86371    0.44461    0.56880   1.00
C3a      0.94556    0.39736    0.62370   1.00
C3a      0.88444    0.43264    0.62370   1.00
H11      0.96665    0.38518    0.63750   1.00
H12      0.86335    0.44482    0.63750   1.00
C4       0.91500    0.41500    0.64440   1.00
C4       0.91500    0.41500    0.68560   1.00
C3a      0.88444    0.43264    0.70630   1.00
C3a      0.94556    0.39736    0.70630   1.00
H13      0.86335    0.44482    0.69250   1.00
H14      0.96665    0.38518    0.69250   1.00
C3a      0.88475    0.43247    0.74720   1.00
C3a      0.94525    0.39753    0.74720   1.00
H1       0.86371    0.44461    0.76120   1.00
H1       0.96629    0.38539    0.76120   1.00
C2       0.91500    0.41500    0.76780   1.00
C2       0.91500    0.56220    0.41500   1.00
C3a      0.89753    0.58280    0.44525   1.00
C3a      0.93247    0.58280    0.38475   1.00
H1       0.88539    0.56880    0.46629   1.00
H1       0.94461    0.56880    0.36371   1.00
C3a      0.89736    0.62370    0.44556   1.00
C3a      0.93264    0.62370    0.38444   1.00
H11      0.88518    0.63750    0.46665   1.00
H12      0.94482    0.63750    0.36335   1.00
C4       0.91500    0.64440    0.41500   1.00
C4       0.91500    0.68560    0.41500   1.00
C3a      0.93264    0.70630    0.38444   1.00
C3a      0.89736    0.70630    0.44556   1.00
H13      0.94482    0.69250    0.36335   1.00
H14      0.88518    0.69250    0.46665   1.00
C3a      0.93247    0.74720    0.38475   1.00
C3a      0.89753    0.74720    0.44525   1.00
H1       0.94461    0.76120    0.36371   1.00
H1       0.88539    0.76120    0.46629   1.00
C2       0.91500    0.76780    0.41500   1.00
C2       0.76780    0.41500    0.41500   1.00
C3a      0.74720    0.44525    0.43247   1.00
C3a      0.74720    0.38475    0.39753   1.00
H1       0.76120    0.46629    0.44461   1.00
H1       0.76120    0.36371    0.38539   1.00
C3a      0.70630    0.44556    0.43264   1.00
C3a      0.70630    0.38444    0.39736   1.00
H11      0.69250    0.46665    0.44482   1.00
H12      0.69250    0.36335    0.38518   1.00
C4       0.68560    0.41500    0.41500   1.00
C4       0.64440    0.41500    0.41500   1.00
C3a      0.62370    0.38444    0.39736   1.00
C3a      0.62370    0.44556    0.43264   1.00
H13      0.63750    0.36335    0.38518   1.00
H14      0.63750    0.46665    0.44482   1.00
C3a      0.58280    0.38475    0.39753   1.00
C3a      0.58280    0.44525    0.43247   1.00
H1       0.56880    0.36371    0.38539   1.00
H1       0.56880    0.46629    0.44461   1.00
C2       0.56220    0.41500    0.41500   1.00
C2       1.06220    0.41500    0.41500   1.00
C3a      1.08280    0.44525    0.39753   1.00
C3a      1.08280    0.38475    0.43247   1.00
H1       1.06880    0.46629    0.38539   1.00
H1       1.06880    0.36371    0.44461   1.00
C3a      1.12370    0.44556    0.39736   1.00
C3a      1.12370    0.38444    0.43264   1.00
H11      1.13750    0.46665    0.38518   1.00
H12      1.13750    0.36335    0.44482   1.00
C4       1.14440    0.41500    0.41500   1.00
C4       0.18560    0.41500    0.41500   1.00
C3a      0.20630    0.38444    0.43264   1.00
C3a      0.20630    0.44556    0.39736   1.00
H13      0.19250    0.36335    0.44482   1.00
H14      0.19250    0.46665    0.38518   1.00
C3a      0.24720    0.38475    0.43247   1.00
C3a      0.24720    0.44525    0.39753   1.00
H1       0.26120    0.36371    0.44461   1.00
H1       0.26120    0.46629    0.38539   1.00
C2       0.26780    0.41500    0.41500   1.00
C2       0.91500    0.26780    0.41500   1.00
C3a      0.93247    0.24720    0.44525   1.00
C3a      0.89753    0.24720    0.38475   1.00
H1       0.94461    0.26120    0.46629   1.00
H1       0.88539    0.26120    0.36371   1.00
C3a      0.93264    0.20630    0.44556   1.00
C3a      0.89736    0.20630    0.38444   1.00
H11      0.94482    0.19250    0.46665   1.00
H12      0.88518    0.19250    0.36335   1.00
C4       0.91500    0.18560    0.41500   1.00
C4       0.91500    1.14440    0.41500   1.00
C3a      0.89736    1.12370    0.38444   1.00
C3a      0.93264    1.12370    0.44556   1.00
H13      0.88518    1.13750    0.36335   1.00
H14      0.94482    1.13750    0.46665   1.00
C3a      0.89753    1.08280    0.38475   1.00
C3a      0.93247    1.08280    0.44525   1.00
H1       0.88539    1.06880    0.36371   1.00
H1       0.94461    1.06880    0.46629   1.00
C2       0.91500    1.06220    0.41500   1.00
C2       0.91500    0.41500    0.26780   1.00
C3a      0.94525    0.43247    0.24720   1.00
C3a      0.88475    0.39753    0.24720   1.00
H1       0.96629    0.44461    0.26120   1.00
H1       0.86371    0.38539    0.26120   1.00
C3a      0.94556    0.43264    0.20630   1.00
C3a      0.88444    0.39736    0.20630   1.00
H11      0.96665    0.44482    0.19250   1.00
H12      0.86335    0.38518    0.19250   1.00
C4       0.91500    0.41500    0.18560   1.00
C4       0.91500    0.41500    1.14440   1.00
C3a      0.88444    0.39736    1.12370   1.00
C3a      0.94556    0.43264    1.12370   1.00
H13      0.86335    0.38518    1.13750   1.00
H14      0.96665    0.44482    1.13750   1.00
C3a      0.88475    0.39753    1.08280   1.00
C3a      0.94525    0.43247    1.08280   1.00
H1       0.86371    0.38539    1.06880   1.00
H1       0.96629    0.44461    1.06880   1.00
C2       0.91500    0.41500    1.06220   1.00
