data_IRMOF10_SG202_interpen_Ligand11cp_label_p.

_audit_creation_method             'generated by an auxiliary program of Tobunporous'

_symmetry_space_group_name_H-M     'P 1'
_symmetry_Int_Tables_number        1
_symmetry_cell_setting             triclinic

_cell_length_a                    34.2800
_cell_length_b                    34.2800
_cell_length_c                    34.2800
_cell_angle_alpha                 90.0000
_cell_angle_beta                  90.0000
_cell_angle_gamma                 90.0000

loop_
_atom_site_label
_atom_site_fract_x
_atom_site_fract_y
_atom_site_fract_z
_atom_site_occupancy
O1       0.75000    0.75000    0.75000   1.00
Zn1      0.71720    0.78280    0.78280   1.00
Zn1      0.78280    0.71720    0.78280   1.00
Zn1      0.78280    0.78280    0.71720   1.00
Zn1      0.71720    0.71720    0.71720   1.00
O2       0.72650    0.77350    0.83820   1.00
O2       0.72650    0.83820    0.77350   1.00
O2       0.66180    0.77350    0.77350   1.00
O2       0.77350    0.72650    0.83820   1.00
O2       0.83820    0.72650    0.77350   1.00
O2       0.77350    0.66180    0.77350   1.00
O2       0.77350    0.83820    0.72650   1.00
O2       0.83820    0.77350    0.72650   1.00
O2       0.77350    0.77350    0.66180   1.00
O2       0.66180    0.72650    0.72650   1.00
O2       0.72650    0.66180    0.72650   1.00
O2       0.72650    0.72650    0.66180   1.00
C1       0.75000    0.75000    0.85520   1.00
C1       0.75000    0.85520    0.75000   1.00
C1       0.64480    0.75000    0.75000   1.00
C1       0.85520    0.75000    0.75000   1.00
C1       0.75000    0.64480    0.75000   1.00
C1       0.75000    0.75000    0.64480   1.00
O1       0.25000    0.25000    0.75000   1.00
Zn1      0.21720    0.28280    0.78280   1.00
Zn1      0.28280    0.21720    0.78280   1.00
Zn1      0.28280    0.28280    0.71720   1.00
Zn1      0.21720    0.21720    0.71720   1.00
O2       0.22650    0.27350    0.83820   1.00
O2       0.22650    0.33820    0.77350   1.00
O2       0.16180    0.27350    0.77350   1.00
O2       0.27350    0.22650    0.83820   1.00
O2       0.33820    0.22650    0.77350   1.00
O2       0.27350    0.16180    0.77350   1.00
O2       0.27350    0.33820    0.72650   1.00
O2       0.33820    0.27350    0.72650   1.00
O2       0.27350    0.27350    0.66180   1.00
O2       0.16180    0.22650    0.72650   1.00
O2       0.22650    0.16180    0.72650   1.00
O2       0.22650    0.22650    0.66180   1.00
C1       0.25000    0.25000    0.85520   1.00
C1       0.25000    0.35520    0.75000   1.00
C1       0.14480    0.25000    0.75000   1.00
C1       0.35520    0.25000    0.75000   1.00
C1       0.25000    0.14480    0.75000   1.00
C1       0.25000    0.25000    0.64480   1.00
O1       0.25000    0.75000    0.25000   1.00
Zn1      0.21720    0.78280    0.28280   1.00
Zn1      0.28280    0.71720    0.28280   1.00
Zn1      0.28280    0.78280    0.21720   1.00
Zn1      0.21720    0.71720    0.21720   1.00
O2       0.22650    0.77350    0.33820   1.00
O2       0.22650    0.83820    0.27350   1.00
O2       0.16180    0.77350    0.27350   1.00
O2       0.27350    0.72650    0.33820   1.00
O2       0.33820    0.72650    0.27350   1.00
O2       0.27350    0.66180    0.27350   1.00
O2       0.27350    0.83820    0.22650   1.00
O2       0.33820    0.77350    0.22650   1.00
O2       0.27350    0.77350    0.16180   1.00
O2       0.16180    0.72650    0.22650   1.00
O2       0.22650    0.66180    0.22650   1.00
O2       0.22650    0.72650    0.16180   1.00
C1       0.25000    0.75000    0.35520   1.00
C1       0.25000    0.85520    0.25000   1.00
C1       0.14480    0.75000    0.25000   1.00
C1       0.35520    0.75000    0.25000   1.00
C1       0.25000    0.64480    0.25000   1.00
C1       0.25000    0.75000    0.14480   1.00
O1       0.75000    0.25000    0.25000   1.00
Zn1      0.71720    0.28280    0.28280   1.00
Zn1      0.78280    0.21720    0.28280   1.00
Zn1      0.78280    0.28280    0.21720   1.00
Zn1      0.71720    0.21720    0.21720   1.00
O2       0.72650    0.27350    0.33820   1.00
O2       0.72650    0.33820    0.27350   1.00
O2       0.66180    0.27350    0.27350   1.00
O2       0.77350    0.22650    0.33820   1.00
O2       0.83820    0.22650    0.27350   1.00
O2       0.77350    0.16180    0.27350   1.00
O2       0.77350    0.33820    0.22650   1.00
O2       0.83820    0.27350    0.22650   1.00
O2       0.77350    0.27350    0.16180   1.00
O2       0.66180    0.22650    0.22650   1.00
O2       0.72650    0.16180    0.22650   1.00
O2       0.72650    0.22650    0.16180   1.00
C1       0.75000    0.25000    0.35520   1.00
C1       0.75000    0.35520    0.25000   1.00
C1       0.64480    0.25000    0.25000   1.00
C1       0.85520    0.25000    0.25000   1.00
C1       0.75000    0.14480    0.25000   1.00
C1       0.75000    0.25000    0.14480   1.00
O1       0.25000    0.25000    0.25000   1.00
Zn1      0.28280    0.21720    0.21720   1.00
Zn1      0.21720    0.28280    0.21720   1.00
Zn1      0.21720    0.21720    0.28280   1.00
Zn1      0.28280    0.28280    0.28280   1.00
O2       0.27350    0.22650    0.16180   1.00
O2       0.27350    0.16180    0.22650   1.00
O2       0.33820    0.22650    0.22650   1.00
O2       0.22650    0.27350    0.16180   1.00
O2       0.16180    0.27350    0.22650   1.00
O2       0.22650    0.33820    0.22650   1.00
O2       0.22650    0.16180    0.27350   1.00
O2       0.16180    0.22650    0.27350   1.00
O2       0.22650    0.22650    0.33820   1.00
O2       0.33820    0.27350    0.27350   1.00
O2       0.27350    0.33820    0.27350   1.00
O2       0.27350    0.27350    0.33820   1.00
C1       0.25000    0.25000    0.14480   1.00
C1       0.25000    0.14480    0.25000   1.00
C1       0.35520    0.25000    0.25000   1.00
C1       0.14480    0.25000    0.25000   1.00
C1       0.25000    0.35520    0.25000   1.00
C1       0.25000    0.25000    0.35520   1.00
O1       0.75000    0.75000    0.25000   1.00
Zn1      0.78280    0.71720    0.21720   1.00
Zn1      0.71720    0.78280    0.21720   1.00
Zn1      0.71720    0.71720    0.28280   1.00
Zn1      0.78280    0.78280    0.28280   1.00
O2       0.77350    0.72650    0.16180   1.00
O2       0.77350    0.66180    0.22650   1.00
O2       0.83820    0.72650    0.22650   1.00
O2       0.72650    0.77350    0.16180   1.00
O2       0.66180    0.77350    0.22650   1.00
O2       0.72650    0.83820    0.22650   1.00
O2       0.72650    0.66180    0.27350   1.00
O2       0.66180    0.72650    0.27350   1.00
O2       0.72650    0.72650    0.33820   1.00
O2       0.83820    0.77350    0.27350   1.00
O2       0.77350    0.83820    0.27350   1.00
O2       0.77350    0.77350    0.33820   1.00
C1       0.75000    0.75000    0.14480   1.00
C1       0.75000    0.64480    0.25000   1.00
C1       0.85520    0.75000    0.25000   1.00
C1       0.64480    0.75000    0.25000   1.00
C1       0.75000    0.85520    0.25000   1.00
C1       0.75000    0.75000    0.35520   1.00
O1       0.75000    0.25000    0.75000   1.00
Zn1      0.78280    0.21720    0.71720   1.00
Zn1      0.71720    0.28280    0.71720   1.00
Zn1      0.71720    0.21720    0.78280   1.00
Zn1      0.78280    0.28280    0.78280   1.00
O2       0.77350    0.22650    0.66180   1.00
O2       0.77350    0.16180    0.72650   1.00
O2       0.83820    0.22650    0.72650   1.00
O2       0.72650    0.27350    0.66180   1.00
O2       0.66180    0.27350    0.72650   1.00
O2       0.72650    0.33820    0.72650   1.00
O2       0.72650    0.16180    0.77350   1.00
O2       0.66180    0.22650    0.77350   1.00
O2       0.72650    0.22650    0.83820   1.00
O2       0.83820    0.27350    0.77350   1.00
O2       0.77350    0.33820    0.77350   1.00
O2       0.77350    0.27350    0.83820   1.00
C1       0.75000    0.25000    0.64480   1.00
C1       0.75000    0.14480    0.75000   1.00
C1       0.85520    0.25000    0.75000   1.00
C1       0.64480    0.25000    0.75000   1.00
C1       0.75000    0.35520    0.75000   1.00
C1       0.75000    0.25000    0.85520   1.00
O1       0.25000    0.75000    0.75000   1.00
Zn1      0.28280    0.71720    0.71720   1.00
Zn1      0.21720    0.78280    0.71720   1.00
Zn1      0.21720    0.71720    0.78280   1.00
Zn1      0.28280    0.78280    0.78280   1.00
O2       0.27350    0.72650    0.66180   1.00
O2       0.27350    0.66180    0.72650   1.00
O2       0.33820    0.72650    0.72650   1.00
O2       0.22650    0.77350    0.66180   1.00
O2       0.16180    0.77350    0.72650   1.00
O2       0.22650    0.83820    0.72650   1.00
O2       0.22650    0.66180    0.77350   1.00
O2       0.16180    0.72650    0.77350   1.00
O2       0.22650    0.72650    0.83820   1.00
O2       0.33820    0.77350    0.77350   1.00
O2       0.27350    0.83820    0.77350   1.00
O2       0.27350    0.77350    0.83820   1.00
C1       0.25000    0.75000    0.64480   1.00
C1       0.25000    0.64480    0.75000   1.00
C1       0.35520    0.75000    0.75000   1.00
C1       0.14480    0.75000    0.75000   1.00
C1       0.25000    0.85520    0.75000   1.00
C1       0.25000    0.75000    0.85520   1.00
O1       0.91500    0.91500    0.91500   1.00
Zn1      0.88220    0.94780    0.94780   1.00
Zn1      0.94780    0.88220    0.94780   1.00
Zn1      0.94780    0.94780    0.88220   1.00
Zn1      0.88220    0.88220    0.88220   1.00
O2       0.89150    0.93850    1.00320   1.00
O2       0.89150    1.00320    0.93850   1.00
O2       0.82680    0.93850    0.93850   1.00
O2       0.93850    0.89150    1.00320   1.00
O2       1.00320    0.89150    0.93850   1.00
O2       0.93850    0.82680    0.93850   1.00
O2       0.93850    1.00320    0.89150   1.00
O2       1.00320    0.93850    0.89150   1.00
O2       0.93850    0.93850    0.82680   1.00
O2       0.82680    0.89150    0.89150   1.00
O2       0.89150    0.82680    0.89150   1.00
O2       0.89150    0.89150    0.82680   1.00
C1       0.91500    0.91500    1.02020   1.00
C1       0.91500    1.02020    0.91500   1.00
C1       0.80980    0.91500    0.91500   1.00
C1       1.02020    0.91500    0.91500   1.00
C1       0.91500    0.80980    0.91500   1.00
C1       0.91500    0.91500    0.80980   1.00
O1       0.41500    0.41500    0.91500   1.00
Zn1      0.38220    0.44780    0.94780   1.00
Zn1      0.44780    0.38220    0.94780   1.00
Zn1      0.44780    0.44780    0.88220   1.00
Zn1      0.38220    0.38220    0.88220   1.00
O2       0.39150    0.43850    1.00320   1.00
O2       0.39150    0.50320    0.93850   1.00
O2       0.32680    0.43850    0.93850   1.00
O2       0.43850    0.39150    1.00320   1.00
O2       0.50320    0.39150    0.93850   1.00
O2       0.43850    0.32680    0.93850   1.00
O2       0.43850    0.50320    0.89150   1.00
O2       0.50320    0.43850    0.89150   1.00
O2       0.43850    0.43850    0.82680   1.00
O2       0.32680    0.39150    0.89150   1.00
O2       0.39150    0.32680    0.89150   1.00
O2       0.39150    0.39150    0.82680   1.00
C1       0.41500    0.41500    1.02020   1.00
C1       0.41500    0.52020    0.91500   1.00
C1       0.30980    0.41500    0.91500   1.00
C1       0.52020    0.41500    0.91500   1.00
C1       0.41500    0.30980    0.91500   1.00
C1       0.41500    0.41500    0.80980   1.00
O1       0.41500    0.91500    0.41500   1.00
Zn1      0.38220    0.94780    0.44780   1.00
Zn1      0.44780    0.88220    0.44780   1.00
Zn1      0.44780    0.94780    0.38220   1.00
Zn1      0.38220    0.88220    0.38220   1.00
O2       0.39150    0.93850    0.50320   1.00
O2       0.39150    1.00320    0.43850   1.00
O2       0.32680    0.93850    0.43850   1.00
O2       0.43850    0.89150    0.50320   1.00
O2       0.50320    0.89150    0.43850   1.00
O2       0.43850    0.82680    0.43850   1.00
O2       0.43850    1.00320    0.39150   1.00
O2       0.50320    0.93850    0.39150   1.00
O2       0.43850    0.93850    0.32680   1.00
O2       0.32680    0.89150    0.39150   1.00
O2       0.39150    0.82680    0.39150   1.00
O2       0.39150    0.89150    0.32680   1.00
C1       0.41500    0.91500    0.52020   1.00
C1       0.41500    1.02020    0.41500   1.00
C1       0.30980    0.91500    0.41500   1.00
C1       0.52020    0.91500    0.41500   1.00
C1       0.41500    0.80980    0.41500   1.00
C1       0.41500    0.91500    0.30980   1.00
O1       0.91500    0.41500    0.41500   1.00
Zn1      0.88220    0.44780    0.44780   1.00
Zn1      0.94780    0.38220    0.44780   1.00
Zn1      0.94780    0.44780    0.38220   1.00
Zn1      0.88220    0.38220    0.38220   1.00
O2       0.89150    0.43850    0.50320   1.00
O2       0.89150    0.50320    0.43850   1.00
O2       0.82680    0.43850    0.43850   1.00
O2       0.93850    0.39150    0.50320   1.00
O2       1.00320    0.39150    0.43850   1.00
O2       0.93850    0.32680    0.43850   1.00
O2       0.93850    0.50320    0.39150   1.00
O2       1.00320    0.43850    0.39150   1.00
O2       0.93850    0.43850    0.32680   1.00
O2       0.82680    0.39150    0.39150   1.00
O2       0.89150    0.32680    0.39150   1.00
O2       0.89150    0.39150    0.32680   1.00
C1       0.91500    0.41500    0.52020   1.00
C1       0.91500    0.52020    0.41500   1.00
C1       0.80980    0.41500    0.41500   1.00
C1       1.02020    0.41500    0.41500   1.00
C1       0.91500    0.30980    0.41500   1.00
C1       0.91500    0.41500    0.30980   1.00
O1       0.41500    0.41500    0.41500   1.00
Zn1      0.44780    0.38220    0.38220   1.00
Zn1      0.38220    0.44780    0.38220   1.00
Zn1      0.38220    0.38220    0.44780   1.00
Zn1      0.44780    0.44780    0.44780   1.00
O2       0.43850    0.39150    0.32680   1.00
O2       0.43850    0.32680    0.39150   1.00
O2       0.50320    0.39150    0.39150   1.00
O2       0.39150    0.43850    0.32680   1.00
O2       0.32680    0.43850    0.39150   1.00
O2       0.39150    0.50320    0.39150   1.00
O2       0.39150    0.32680    0.43850   1.00
O2       0.32680    0.39150    0.43850   1.00
O2       0.39150    0.39150    0.50320   1.00
O2       0.50320    0.43850    0.43850   1.00
O2       0.43850    0.50320    0.43850   1.00
O2       0.43850    0.43850    0.50320   1.00
C1       0.41500    0.41500    0.30980   1.00
C1       0.41500    0.30980    0.41500   1.00
C1       0.52020    0.41500    0.41500   1.00
C1       0.30980    0.41500    0.41500   1.00
C1       0.41500    0.52020    0.41500   1.00
C1       0.41500    0.41500    0.52020   1.00
O1       0.91500    0.91500    0.41500   1.00
Zn1      0.94780    0.88220    0.38220   1.00
Zn1      0.88220    0.94780    0.38220   1.00
Zn1      0.88220    0.88220    0.44780   1.00
Zn1      0.94780    0.94780    0.44780   1.00
O2       0.93850    0.89150    0.32680   1.00
O2       0.93850    0.82680    0.39150   1.00
O2       1.00320    0.89150    0.39150   1.00
O2       0.89150    0.93850    0.32680   1.00
O2       0.82680    0.93850    0.39150   1.00
O2       0.89150    1.00320    0.39150   1.00
O2       0.89150    0.82680    0.43850   1.00
O2       0.82680    0.89150    0.43850   1.00
O2       0.89150    0.89150    0.50320   1.00
O2       1.00320    0.93850    0.43850   1.00
O2       0.93850    1.00320    0.43850   1.00
O2       0.93850    0.93850    0.50320   1.00
C1       0.91500    0.91500    0.30980   1.00
C1       0.91500    0.80980    0.41500   1.00
C1       1.02020    0.91500    0.41500   1.00
C1       0.80980    0.91500    0.41500   1.00
C1       0.91500    1.02020    0.41500   1.00
C1       0.91500    0.91500    0.52020   1.00
O1       0.91500    0.41500    0.91500   1.00
Zn1      0.94780    0.38220    0.88220   1.00
Zn1      0.88220    0.44780    0.88220   1.00
Zn1      0.88220    0.38220    0.94780   1.00
Zn1      0.94780    0.44780    0.94780   1.00
O2       0.93850    0.39150    0.82680   1.00
O2       0.93850    0.32680    0.89150   1.00
O2       1.00320    0.39150    0.89150   1.00
O2       0.89150    0.43850    0.82680   1.00
O2       0.82680    0.43850    0.89150   1.00
O2       0.89150    0.50320    0.89150   1.00
O2       0.89150    0.32680    0.93850   1.00
O2       0.82680    0.39150    0.93850   1.00
O2       0.89150    0.39150    1.00320   1.00
O2       1.00320    0.43850    0.93850   1.00
O2       0.93850    0.50320    0.93850   1.00
O2       0.93850    0.43850    1.00320   1.00
C1       0.91500    0.41500    0.80980   1.00
C1       0.91500    0.30980    0.91500   1.00
C1       1.02020    0.41500    0.91500   1.00
C1       0.80980    0.41500    0.91500   1.00
C1       0.91500    0.52020    0.91500   1.00
C1       0.91500    0.41500    1.02020   1.00
O1       0.41500    0.91500    0.91500   1.00
Zn1      0.44780    0.88220    0.88220   1.00
Zn1      0.38220    0.94780    0.88220   1.00
Zn1      0.38220    0.88220    0.94780   1.00
Zn1      0.44780    0.94780    0.94780   1.00
O2       0.43850    0.89150    0.82680   1.00
O2       0.43850    0.82680    0.89150   1.00
O2       0.50320    0.89150    0.89150   1.00
O2       0.39150    0.93850    0.82680   1.00
O2       0.32680    0.93850    0.89150   1.00
O2       0.39150    1.00320    0.89150   1.00
O2       0.39150    0.82680    0.93850   1.00
O2       0.32680    0.89150    0.93850   1.00
O2       0.39150    0.89150    1.00320   1.00
O2       0.50320    0.93850    0.93850   1.00
O2       0.43850    1.00320    0.93850   1.00
O2       0.43850    0.93850    1.00320   1.00
C1       0.41500    0.91500    0.80980   1.00
C1       0.41500    0.80980    0.91500   1.00
C1       0.52020    0.91500    0.91500   1.00
C1       0.30980    0.91500    0.91500   1.00
C1       0.41500    1.02020    0.91500   1.00
C1       0.41500    0.91500    1.02020   1.00
C4       0.74984    0.74988    0.97915   1.00
C4       0.75016    0.75012    1.02085   1.00
C3a      0.74132    0.71534    0.95746   1.00
C3       0.71510    0.75229    1.04232   1.00
C3       0.75788    0.78408    0.95768   1.00
C3a      0.78569    0.74830    1.04254   1.00
C2       0.74995    0.75006    0.89488   1.00
C2       0.74995    0.75007    1.10512   1.00
C3       0.74159    0.71596    0.91595   1.00
C3       0.71504    0.75215    1.08363   1.00
C3       0.75804    0.78409    0.91637   1.00
C3       0.78502    0.74823    1.08405   1.00
C5       0.73242    0.67713    0.97772   1.00
H1       0.68754    0.75371    1.02691   1.00
H1       0.73529    0.68959    0.89979   1.00
H1       0.68750    0.75363    1.09901   1.00
H1       0.76458    0.81088    0.90099   1.00
H1       0.81209    0.74664    1.10021   1.00
C5       0.82485    0.74579    1.02228   1.00
H1       0.76448    0.81087    0.97309   1.00
H2       0.84696    0.73355    1.04256   1.00
H2       0.82323    0.72520    0.99731   1.00
H2       0.73775    0.65242    0.95744   1.00
H2       0.75260    0.67273    1.00269   1.00
N1       0.83749    0.78421    1.00857   1.00
C6       0.84700    0.81484    1.03073   1.00
C6       0.84279    0.79501    0.97154   1.00
C6       0.85802    0.84578    1.00759   1.00
C6       0.85535    0.83316    0.96995   1.00
H3       0.84571    0.81497    1.06197   1.00
H3       0.83756    0.77642    0.94700   1.00
H3       0.86702    0.87432    1.01713   1.00
H3       0.86181    0.84992    0.94425   1.00
N1       0.69199    0.67612    0.99143   1.00
C6       0.68011    0.67416    1.02846   1.00
C6       0.65991    0.67586    0.96927   1.00
C6       0.63996    0.67315    1.03005   1.00
C6       0.62711    0.67424    0.99241   1.00
H3       0.69942    0.67380    1.05300   1.00
H3       0.66016    0.67712    0.93803   1.00
H3       0.62205    0.67180    1.05575   1.00
H3       0.59718    0.67386    0.98287   1.00
C4       0.74988    0.97915    0.74984   1.00
C4       0.75012    1.02085    0.75016   1.00
C3a      0.71534    0.95746    0.74132   1.00
C3       0.75229    1.04232    0.71510   1.00
C3       0.78408    0.95768    0.75788   1.00
C3a      0.74830    1.04254    0.78569   1.00
C2       0.75006    0.89488    0.74995   1.00
C2       0.75007    1.10512    0.74995   1.00
C3       0.71596    0.91595    0.74159   1.00
C3       0.75215    1.08363    0.71504   1.00
C3       0.78409    0.91637    0.75804   1.00
C3       0.74823    1.08405    0.78502   1.00
C5       0.67713    0.97772    0.73242   1.00
H1       0.75371    1.02691    0.68754   1.00
H1       0.68959    0.89979    0.73529   1.00
H1       0.75363    1.09901    0.68750   1.00
H1       0.81088    0.90099    0.76458   1.00
H1       0.74664    1.10021    0.81209   1.00
C5       0.74579    1.02228    0.82485   1.00
H1       0.81087    0.97309    0.76448   1.00
H2       0.73355    1.04256    0.84696   1.00
H2       0.72520    0.99731    0.82323   1.00
H2       0.65242    0.95744    0.73775   1.00
H2       0.67273    1.00269    0.75260   1.00
N1       0.78421    1.00857    0.83749   1.00
C6       0.81484    1.03073    0.84700   1.00
C6       0.79501    0.97154    0.84279   1.00
C6       0.84578    1.00759    0.85802   1.00
C6       0.83316    0.96995    0.85535   1.00
H3       0.81497    1.06197    0.84571   1.00
H3       0.77642    0.94700    0.83756   1.00
H3       0.87432    1.01713    0.86702   1.00
H3       0.84992    0.94425    0.86181   1.00
N1       0.67612    0.99143    0.69199   1.00
C6       0.67416    1.02846    0.68011   1.00
C6       0.67586    0.96927    0.65991   1.00
C6       0.67315    1.03005    0.63996   1.00
C6       0.67424    0.99241    0.62711   1.00
H3       0.67380    1.05300    0.69942   1.00
H3       0.67712    0.93803    0.66016   1.00
H3       0.67180    1.05575    0.62205   1.00
H3       0.67386    0.98287    0.59718   1.00
C4       0.52085    0.74984    0.75012   1.00
C4       0.47915    0.75016    0.74988   1.00
C3a      0.54254    0.74132    0.78466   1.00
C3       0.45768    0.71510    0.74771   1.00
C3       0.54232    0.75788    0.71592   1.00
C3a      0.45746    0.78569    0.75170   1.00
C2       0.60512    0.74995    0.74994   1.00
C2       0.39488    0.74995    0.74993   1.00
C3       0.58405    0.74159    0.78404   1.00
C3       0.41637    0.71504    0.74785   1.00
C3       0.58363    0.75804    0.71591   1.00
C3       0.41595    0.78502    0.75177   1.00
C5       0.52228    0.73242    0.82287   1.00
H1       0.47309    0.68754    0.74629   1.00
H1       0.60021    0.73529    0.81041   1.00
H1       0.40099    0.68750    0.74637   1.00
H1       0.59901    0.76458    0.68912   1.00
H1       0.39979    0.81209    0.75336   1.00
C5       0.47772    0.82485    0.75421   1.00
H1       0.52691    0.76448    0.68913   1.00
H2       0.45744    0.84696    0.76645   1.00
H2       0.50269    0.82323    0.77480   1.00
H2       0.54256    0.73775    0.84758   1.00
H2       0.49731    0.75260    0.82727   1.00
N1       0.49143    0.83749    0.71579   1.00
C6       0.46927    0.84700    0.68516   1.00
C6       0.52846    0.84279    0.70499   1.00
C6       0.49241    0.85802    0.65422   1.00
C6       0.53005    0.85535    0.66684   1.00
H3       0.43803    0.84571    0.68503   1.00
H3       0.55300    0.83756    0.72358   1.00
H3       0.48287    0.86702    0.62568   1.00
H3       0.55575    0.86181    0.65008   1.00
N1       0.50857    0.69199    0.82388   1.00
C6       0.47154    0.68011    0.82584   1.00
C6       0.53073    0.65991    0.82414   1.00
C6       0.46995    0.63996    0.82685   1.00
C6       0.50759    0.62711    0.82576   1.00
H3       0.44700    0.69942    0.82620   1.00
H3       0.56197    0.66016    0.82288   1.00
H3       0.44425    0.62205    0.82820   1.00
H3       0.51713    0.59718    0.82614   1.00
C4       0.97915    0.74984    0.74988   1.00
C4       1.02085    0.75016    0.75012   1.00
C3a      0.95746    0.74132    0.71534   1.00
C3       1.04232    0.71510    0.75229   1.00
C3       0.95768    0.75788    0.78408   1.00
C3a      1.04254    0.78569    0.74830   1.00
C2       0.89488    0.74995    0.75006   1.00
C2       1.10512    0.74995    0.75007   1.00
C3       0.91595    0.74159    0.71596   1.00
C3       1.08363    0.71504    0.75215   1.00
C3       0.91637    0.75804    0.78409   1.00
C3       1.08405    0.78502    0.74823   1.00
C5       0.97772    0.73242    0.67713   1.00
H1       1.02691    0.68754    0.75371   1.00
H1       0.89979    0.73529    0.68959   1.00
H1       1.09901    0.68750    0.75363   1.00
H1       0.90099    0.76458    0.81088   1.00
H1       1.10021    0.81209    0.74664   1.00
C5       1.02228    0.82485    0.74579   1.00
H1       0.97309    0.76448    0.81087   1.00
H2       1.04256    0.84696    0.73355   1.00
H2       0.99731    0.82323    0.72520   1.00
H2       0.95744    0.73775    0.65242   1.00
H2       1.00269    0.75260    0.67273   1.00
N1       1.00857    0.83749    0.78421   1.00
C6       1.03073    0.84700    0.81484   1.00
C6       0.97154    0.84279    0.79501   1.00
C6       1.00759    0.85802    0.84578   1.00
C6       0.96995    0.85535    0.83316   1.00
H3       1.06197    0.84571    0.81497   1.00
H3       0.94700    0.83756    0.77642   1.00
H3       1.01713    0.86702    0.87432   1.00
H3       0.94425    0.86181    0.84992   1.00
N1       0.99143    0.69199    0.67612   1.00
C6       1.02846    0.68011    0.67416   1.00
C6       0.96927    0.65991    0.67586   1.00
C6       1.03005    0.63996    0.67315   1.00
C6       0.99241    0.62711    0.67424   1.00
H3       1.05300    0.69942    0.67380   1.00
H3       0.93803    0.66016    0.67712   1.00
H3       1.05575    0.62205    0.67180   1.00
H3       0.98287    0.59718    0.67386   1.00
C4       0.75012    0.52085    0.74984   1.00
C4       0.74988    0.47915    0.75016   1.00
C3a      0.78466    0.54254    0.74132   1.00
C3       0.74771    0.45768    0.71510   1.00
C3       0.71592    0.54232    0.75788   1.00
C3a      0.75170    0.45746    0.78569   1.00
C2       0.74994    0.60512    0.74995   1.00
C2       0.74993    0.39488    0.74995   1.00
C3       0.78404    0.58405    0.74159   1.00
C3       0.74785    0.41637    0.71504   1.00
C3       0.71591    0.58363    0.75804   1.00
C3       0.75177    0.41595    0.78502   1.00
C5       0.82287    0.52228    0.73242   1.00
H1       0.74629    0.47309    0.68754   1.00
H1       0.81041    0.60021    0.73529   1.00
H1       0.74637    0.40099    0.68750   1.00
H1       0.68912    0.59901    0.76458   1.00
H1       0.75336    0.39979    0.81209   1.00
C5       0.75421    0.47772    0.82485   1.00
H1       0.68913    0.52691    0.76448   1.00
H2       0.76645    0.45744    0.84696   1.00
H2       0.77480    0.50269    0.82323   1.00
H2       0.84758    0.54256    0.73775   1.00
H2       0.82727    0.49731    0.75260   1.00
N1       0.71579    0.49143    0.83749   1.00
C6       0.68516    0.46927    0.84700   1.00
C6       0.70499    0.52846    0.84279   1.00
C6       0.65422    0.49241    0.85802   1.00
C6       0.66684    0.53005    0.85535   1.00
H3       0.68503    0.43803    0.84571   1.00
H3       0.72358    0.55300    0.83756   1.00
H3       0.62568    0.48287    0.86702   1.00
H3       0.65008    0.55575    0.86181   1.00
N1       0.82388    0.50857    0.69199   1.00
C6       0.82584    0.47154    0.68011   1.00
C6       0.82414    0.53073    0.65991   1.00
C6       0.82685    0.46995    0.63996   1.00
C6       0.82576    0.50759    0.62711   1.00
H3       0.82620    0.44700    0.69942   1.00
H3       0.82288    0.56197    0.66016   1.00
H3       0.82820    0.44425    0.62205   1.00
H3       0.82614    0.51713    0.59718   1.00
C4       0.74984    0.75012    0.52085   1.00
C4       0.75016    0.74988    0.47915   1.00
C3a      0.74132    0.78466    0.54254   1.00
C3       0.71510    0.74771    0.45768   1.00
C3       0.75788    0.71592    0.54232   1.00
C3a      0.78569    0.75170    0.45746   1.00
C2       0.74995    0.74994    0.60512   1.00
C2       0.74995    0.74993    0.39488   1.00
C3       0.74159    0.78404    0.58405   1.00
C3       0.71504    0.74785    0.41637   1.00
C3       0.75804    0.71591    0.58363   1.00
C3       0.78502    0.75177    0.41595   1.00
C5       0.73242    0.82287    0.52228   1.00
H1       0.68754    0.74629    0.47309   1.00
H1       0.73529    0.81041    0.60021   1.00
H1       0.68750    0.74637    0.40099   1.00
H1       0.76458    0.68912    0.59901   1.00
H1       0.81209    0.75336    0.39979   1.00
C5       0.82485    0.75421    0.47772   1.00
H1       0.76448    0.68913    0.52691   1.00
H2       0.84696    0.76645    0.45744   1.00
H2       0.82323    0.77480    0.50269   1.00
H2       0.73775    0.84758    0.54256   1.00
H2       0.75260    0.82727    0.49731   1.00
N1       0.83749    0.71579    0.49143   1.00
C6       0.84700    0.68516    0.46927   1.00
C6       0.84279    0.70499    0.52846   1.00
C6       0.85802    0.65422    0.49241   1.00
C6       0.85535    0.66684    0.53005   1.00
H3       0.84571    0.68503    0.43803   1.00
H3       0.83756    0.72358    0.55300   1.00
H3       0.86702    0.62568    0.48287   1.00
H3       0.86181    0.65008    0.55575   1.00
N1       0.69199    0.82388    0.50857   1.00
C6       0.68011    0.82584    0.47154   1.00
C6       0.65991    0.82414    0.53073   1.00
C6       0.63996    0.82685    0.46995   1.00
C6       0.62711    0.82576    0.50759   1.00
H3       0.69942    0.82620    0.44700   1.00
H3       0.66016    0.82288    0.56197   1.00
H3       0.62205    0.82820    0.44425   1.00
H3       0.59718    0.82614    0.51713   1.00
C4       0.24984    0.24988    0.97915   1.00
C4       0.25016    0.25012    1.02085   1.00
C3a      0.24132    0.21534    0.95746   1.00
C3       0.21510    0.25229    1.04232   1.00
C3       0.25788    0.28408    0.95768   1.00
C3a      0.28569    0.24830    1.04254   1.00
C2       0.24995    0.25006    0.89488   1.00
C2       0.24995    0.25007    1.10512   1.00
C3       0.24159    0.21596    0.91595   1.00
C3       0.21504    0.25215    1.08363   1.00
C3       0.25804    0.28409    0.91637   1.00
C3       0.28502    0.24823    1.08405   1.00
C5       0.23242    0.17713    0.97772   1.00
H1       0.18754    0.25371    1.02691   1.00
H1       0.23529    0.18959    0.89979   1.00
H1       0.18750    0.25363    1.09901   1.00
H1       0.26458    0.31088    0.90099   1.00
H1       0.31209    0.24664    1.10021   1.00
C5       0.32485    0.24579    1.02228   1.00
H1       0.26448    0.31087    0.97309   1.00
H2       0.34696    0.23355    1.04256   1.00
H2       0.32323    0.22520    0.99731   1.00
H2       0.23775    0.15242    0.95744   1.00
H2       0.25260    0.17273    1.00269   1.00
N1       0.33749    0.28421    1.00857   1.00
C6       0.34700    0.31484    1.03073   1.00
C6       0.34279    0.29501    0.97154   1.00
C6       0.35802    0.34578    1.00759   1.00
C6       0.35535    0.33316    0.96995   1.00
H3       0.34571    0.31497    1.06197   1.00
H3       0.33756    0.27642    0.94700   1.00
H3       0.36702    0.37432    1.01713   1.00
H3       0.36181    0.34992    0.94425   1.00
N1       0.19199    0.17612    0.99143   1.00
C6       0.18011    0.17416    1.02846   1.00
C6       0.15991    0.17586    0.96927   1.00
C6       0.13996    0.17315    1.03005   1.00
C6       0.12711    0.17424    0.99241   1.00
H3       0.19942    0.17380    1.05300   1.00
H3       0.16016    0.17712    0.93803   1.00
H3       0.12205    0.17180    1.05575   1.00
H3       0.09718    0.17386    0.98287   1.00
C4       0.24988    0.47915    0.74984   1.00
C4       0.25012    0.52085    0.75016   1.00
C3a      0.21534    0.45746    0.74132   1.00
C3       0.25229    0.54232    0.71510   1.00
C3       0.28408    0.45768    0.75788   1.00
C3a      0.24830    0.54254    0.78569   1.00
C2       0.25006    0.39488    0.74995   1.00
C2       0.25007    0.60512    0.74995   1.00
C3       0.21596    0.41595    0.74159   1.00
C3       0.25215    0.58363    0.71504   1.00
C3       0.28409    0.41637    0.75804   1.00
C3       0.24823    0.58405    0.78502   1.00
C5       0.17713    0.47772    0.73242   1.00
H1       0.25371    0.52691    0.68754   1.00
H1       0.18959    0.39979    0.73529   1.00
H1       0.25363    0.59901    0.68750   1.00
H1       0.31088    0.40099    0.76458   1.00
H1       0.24664    0.60021    0.81209   1.00
C5       0.24579    0.52228    0.82485   1.00
H1       0.31087    0.47309    0.76448   1.00
H2       0.23355    0.54256    0.84696   1.00
H2       0.22520    0.49731    0.82323   1.00
H2       0.15242    0.45744    0.73775   1.00
H2       0.17273    0.50269    0.75260   1.00
N1       0.28421    0.50857    0.83749   1.00
C6       0.31484    0.53073    0.84700   1.00
C6       0.29501    0.47154    0.84279   1.00
C6       0.34578    0.50759    0.85802   1.00
C6       0.33316    0.46995    0.85535   1.00
H3       0.31497    0.56197    0.84571   1.00
H3       0.27642    0.44700    0.83756   1.00
H3       0.37432    0.51713    0.86702   1.00
H3       0.34992    0.44425    0.86181   1.00
N1       0.17612    0.49143    0.69199   1.00
C6       0.17416    0.52846    0.68011   1.00
C6       0.17586    0.46927    0.65991   1.00
C6       0.17315    0.53005    0.63996   1.00
C6       0.17424    0.49241    0.62711   1.00
H3       0.17380    0.55300    0.69942   1.00
H3       0.17712    0.43803    0.66016   1.00
H3       0.17180    0.55575    0.62205   1.00
H3       0.17386    0.48287    0.59718   1.00
C4       0.02085    0.24984    0.75012   1.00
C4       -0.02085   0.25016    0.74988   1.00
C3a      0.04254    0.24132    0.78466   1.00
C3       -0.04232   0.21510    0.74771   1.00
C3       0.04232    0.25788    0.71592   1.00
C3a      -0.04254   0.28569    0.75170   1.00
C2       0.10512    0.24995    0.74994   1.00
C2       -0.10512   0.24995    0.74993   1.00
C3       0.08405    0.24159    0.78404   1.00
C3       -0.08363   0.21504    0.74785   1.00
C3       0.08363    0.25804    0.71591   1.00
C3       -0.08405   0.28502    0.75177   1.00
C5       0.02228    0.23242    0.82287   1.00
H1       -0.02691   0.18754    0.74629   1.00
H1       0.10021    0.23529    0.81041   1.00
H1       -0.09901   0.18750    0.74637   1.00
H1       0.09901    0.26458    0.68912   1.00
H1       -0.10021   0.31209    0.75336   1.00
C5       -0.02228   0.32485    0.75421   1.00
H1       0.02691    0.26448    0.68913   1.00
H2       -0.04256   0.34696    0.76645   1.00
H2       0.00269    0.32323    0.77480   1.00
H2       0.04256    0.23775    0.84758   1.00
H2       -0.00269   0.25260    0.82727   1.00
N1       -0.00857   0.33749    0.71579   1.00
C6       -0.03073   0.34700    0.68516   1.00
C6       0.02846    0.34279    0.70499   1.00
C6       -0.00759   0.35802    0.65422   1.00
C6       0.03005    0.35535    0.66684   1.00
H3       -0.06197   0.34571    0.68503   1.00
H3       0.05300    0.33756    0.72358   1.00
H3       -0.01713   0.36702    0.62568   1.00
H3       0.05575    0.36181    0.65008   1.00
N1       0.00857    0.19199    0.82388   1.00
C6       -0.02846   0.18011    0.82584   1.00
C6       0.03073    0.15991    0.82414   1.00
C6       -0.03005   0.13996    0.82685   1.00
C6       0.00759    0.12711    0.82576   1.00
H3       -0.05300   0.19942    0.82620   1.00
H3       0.06197    0.16016    0.82288   1.00
H3       -0.05575   0.12205    0.82820   1.00
H3       0.01713    0.09718    0.82614   1.00
C4       0.47915    0.24984    0.74988   1.00
C4       0.52085    0.25016    0.75012   1.00
C3a      0.45746    0.24132    0.71534   1.00
C3       0.54232    0.21510    0.75229   1.00
C3       0.45768    0.25788    0.78408   1.00
C3a      0.54254    0.28569    0.74830   1.00
C2       0.39488    0.24995    0.75006   1.00
C2       0.60512    0.24995    0.75007   1.00
C3       0.41595    0.24159    0.71596   1.00
C3       0.58363    0.21504    0.75215   1.00
C3       0.41637    0.25804    0.78409   1.00
C3       0.58405    0.28502    0.74823   1.00
C5       0.47772    0.23242    0.67713   1.00
H1       0.52691    0.18754    0.75371   1.00
H1       0.39979    0.23529    0.68959   1.00
H1       0.59901    0.18750    0.75363   1.00
H1       0.40099    0.26458    0.81088   1.00
H1       0.60021    0.31209    0.74664   1.00
C5       0.52228    0.32485    0.74579   1.00
H1       0.47309    0.26448    0.81087   1.00
H2       0.54256    0.34696    0.73355   1.00
H2       0.49731    0.32323    0.72520   1.00
H2       0.45744    0.23775    0.65242   1.00
H2       0.50269    0.25260    0.67273   1.00
N1       0.50857    0.33749    0.78421   1.00
C6       0.53073    0.34700    0.81484   1.00
C6       0.47154    0.34279    0.79501   1.00
C6       0.50759    0.35802    0.84578   1.00
C6       0.46995    0.35535    0.83316   1.00
H3       0.56197    0.34571    0.81497   1.00
H3       0.44700    0.33756    0.77642   1.00
H3       0.51713    0.36702    0.87432   1.00
H3       0.44425    0.36181    0.84992   1.00
N1       0.49143    0.19199    0.67612   1.00
C6       0.52846    0.18011    0.67416   1.00
C6       0.46927    0.15991    0.67586   1.00
C6       0.53005    0.13996    0.67315   1.00
C6       0.49241    0.12711    0.67424   1.00
H3       0.55300    0.19942    0.67380   1.00
H3       0.43803    0.16016    0.67712   1.00
H3       0.55575    0.12205    0.67180   1.00
H3       0.48287    0.09718    0.67386   1.00
C4       0.25012    0.02085    0.74984   1.00
C4       0.24988    -0.02085   0.75016   1.00
C3a      0.28466    0.04254    0.74132   1.00
C3       0.24771    -0.04232   0.71510   1.00
C3       0.21592    0.04232    0.75788   1.00
C3a      0.25170    -0.04254   0.78569   1.00
C2       0.24994    0.10512    0.74995   1.00
C2       0.24993    -0.10512   0.74995   1.00
C3       0.28404    0.08405    0.74159   1.00
C3       0.24785    -0.08363   0.71504   1.00
C3       0.21591    0.08363    0.75804   1.00
C3       0.25177    -0.08405   0.78502   1.00
C5       0.32287    0.02228    0.73242   1.00
H1       0.24629    -0.02691   0.68754   1.00
H1       0.31041    0.10021    0.73529   1.00
H1       0.24637    -0.09901   0.68750   1.00
H1       0.18912    0.09901    0.76458   1.00
H1       0.25336    -0.10021   0.81209   1.00
C5       0.25421    -0.02228   0.82485   1.00
H1       0.18913    0.02691    0.76448   1.00
H2       0.26645    -0.04256   0.84696   1.00
H2       0.27480    0.00269    0.82323   1.00
H2       0.34758    0.04256    0.73775   1.00
H2       0.32727    -0.00269   0.75260   1.00
N1       0.21579    -0.00857   0.83749   1.00
C6       0.18516    -0.03073   0.84700   1.00
C6       0.20499    0.02846    0.84279   1.00
C6       0.15422    -0.00759   0.85802   1.00
C6       0.16684    0.03005    0.85535   1.00
H3       0.18503    -0.06197   0.84571   1.00
H3       0.22358    0.05300    0.83756   1.00
H3       0.12568    -0.01713   0.86702   1.00
H3       0.15008    0.05575    0.86181   1.00
N1       0.32388    0.00857    0.69199   1.00
C6       0.32584    -0.02846   0.68011   1.00
C6       0.32414    0.03073    0.65991   1.00
C6       0.32685    -0.03005   0.63996   1.00
C6       0.32576    0.00759    0.62711   1.00
H3       0.32620    -0.05300   0.69942   1.00
H3       0.32288    0.06197    0.66016   1.00
H3       0.32820    -0.05575   0.62205   1.00
H3       0.32614    0.01713    0.59718   1.00
C4       0.24984    0.25012    0.52085   1.00
C4       0.25016    0.24988    0.47915   1.00
C3a      0.24132    0.28466    0.54254   1.00
C3       0.21510    0.24771    0.45768   1.00
C3       0.25788    0.21592    0.54232   1.00
C3a      0.28569    0.25170    0.45746   1.00
C2       0.24995    0.24994    0.60512   1.00
C2       0.24995    0.24993    0.39488   1.00
C3       0.24159    0.28404    0.58405   1.00
C3       0.21504    0.24785    0.41637   1.00
C3       0.25804    0.21591    0.58363   1.00
C3       0.28502    0.25177    0.41595   1.00
C5       0.23242    0.32287    0.52228   1.00
H1       0.18754    0.24629    0.47309   1.00
H1       0.23529    0.31041    0.60021   1.00
H1       0.18750    0.24637    0.40099   1.00
H1       0.26458    0.18912    0.59901   1.00
H1       0.31209    0.25336    0.39979   1.00
C5       0.32485    0.25421    0.47772   1.00
H1       0.26448    0.18913    0.52691   1.00
H2       0.34696    0.26645    0.45744   1.00
H2       0.32323    0.27480    0.50269   1.00
H2       0.23775    0.34758    0.54256   1.00
H2       0.25260    0.32727    0.49731   1.00
N1       0.33749    0.21579    0.49143   1.00
C6       0.34700    0.18516    0.46927   1.00
C6       0.34279    0.20499    0.52846   1.00
C6       0.35802    0.15422    0.49241   1.00
C6       0.35535    0.16684    0.53005   1.00
H3       0.34571    0.18503    0.43803   1.00
H3       0.33756    0.22358    0.55300   1.00
H3       0.36702    0.12568    0.48287   1.00
H3       0.36181    0.15008    0.55575   1.00
N1       0.19199    0.32388    0.50857   1.00
C6       0.18011    0.32584    0.47154   1.00
C6       0.15991    0.32414    0.53073   1.00
C6       0.13996    0.32685    0.46995   1.00
C6       0.12711    0.32576    0.50759   1.00
H3       0.19942    0.32620    0.44700   1.00
H3       0.16016    0.32288    0.56197   1.00
H3       0.12205    0.32820    0.44425   1.00
H3       0.09718    0.32614    0.51713   1.00
C4       0.24984    0.74988    0.47915   1.00
C4       0.25016    0.75012    0.52085   1.00
C3a      0.24132    0.71534    0.45746   1.00
C3       0.21510    0.75229    0.54232   1.00
C3       0.25788    0.78408    0.45768   1.00
C3a      0.28569    0.74830    0.54254   1.00
C2       0.24995    0.75006    0.39488   1.00
C2       0.24995    0.75007    0.60512   1.00
C3       0.24159    0.71596    0.41595   1.00
C3       0.21504    0.75215    0.58363   1.00
C3       0.25804    0.78409    0.41637   1.00
C3       0.28502    0.74823    0.58405   1.00
C5       0.23242    0.67713    0.47772   1.00
H1       0.18754    0.75371    0.52691   1.00
H1       0.23529    0.68959    0.39979   1.00
H1       0.18750    0.75363    0.59901   1.00
H1       0.26458    0.81088    0.40099   1.00
H1       0.31209    0.74664    0.60021   1.00
C5       0.32485    0.74579    0.52228   1.00
H1       0.26448    0.81087    0.47309   1.00
H2       0.34696    0.73355    0.54256   1.00
H2       0.32323    0.72520    0.49731   1.00
H2       0.23775    0.65242    0.45744   1.00
H2       0.25260    0.67273    0.50269   1.00
N1       0.33749    0.78421    0.50857   1.00
C6       0.34700    0.81484    0.53073   1.00
C6       0.34279    0.79501    0.47154   1.00
C6       0.35802    0.84578    0.50759   1.00
C6       0.35535    0.83316    0.46995   1.00
H3       0.34571    0.81497    0.56197   1.00
H3       0.33756    0.77642    0.44700   1.00
H3       0.36702    0.87432    0.51713   1.00
H3       0.36181    0.84992    0.44425   1.00
N1       0.19199    0.67612    0.49143   1.00
C6       0.18011    0.67416    0.52846   1.00
C6       0.15991    0.67586    0.46927   1.00
C6       0.13996    0.67315    0.53005   1.00
C6       0.12711    0.67424    0.49241   1.00
H3       0.19942    0.67380    0.55300   1.00
H3       0.16016    0.67712    0.43803   1.00
H3       0.12205    0.67180    0.55575   1.00
H3       0.09718    0.67386    0.48287   1.00
C4       0.24988    0.97915    0.24984   1.00
C4       0.25012    1.02085    0.25016   1.00
C3a      0.21534    0.95746    0.24132   1.00
C3       0.25229    1.04232    0.21510   1.00
C3       0.28408    0.95768    0.25788   1.00
C3a      0.24830    1.04254    0.28569   1.00
C2       0.25006    0.89488    0.24995   1.00
C2       0.25007    1.10512    0.24995   1.00
C3       0.21596    0.91595    0.24159   1.00
C3       0.25215    1.08363    0.21504   1.00
C3       0.28409    0.91637    0.25804   1.00
C3       0.24823    1.08405    0.28502   1.00
C5       0.17713    0.97772    0.23242   1.00
H1       0.25371    1.02691    0.18754   1.00
H1       0.18959    0.89979    0.23529   1.00
H1       0.25363    1.09901    0.18750   1.00
H1       0.31088    0.90099    0.26458   1.00
H1       0.24664    1.10021    0.31209   1.00
C5       0.24579    1.02228    0.32485   1.00
H1       0.31087    0.97309    0.26448   1.00
H2       0.23355    1.04256    0.34696   1.00
H2       0.22520    0.99731    0.32323   1.00
H2       0.15242    0.95744    0.23775   1.00
H2       0.17273    1.00269    0.25260   1.00
N1       0.28421    1.00857    0.33749   1.00
C6       0.31484    1.03073    0.34700   1.00
C6       0.29501    0.97154    0.34279   1.00
C6       0.34578    1.00759    0.35802   1.00
C6       0.33316    0.96995    0.35535   1.00
H3       0.31497    1.06197    0.34571   1.00
H3       0.27642    0.94700    0.33756   1.00
H3       0.37432    1.01713    0.36702   1.00
H3       0.34992    0.94425    0.36181   1.00
N1       0.17612    0.99143    0.19199   1.00
C6       0.17416    1.02846    0.18011   1.00
C6       0.17586    0.96927    0.15991   1.00
C6       0.17315    1.03005    0.13996   1.00
C6       0.17424    0.99241    0.12711   1.00
H3       0.17380    1.05300    0.19942   1.00
H3       0.17712    0.93803    0.16016   1.00
H3       0.17180    1.05575    0.12205   1.00
H3       0.17386    0.98287    0.09718   1.00
C4       0.02085    0.74984    0.25012   1.00
C4       -0.02085   0.75016    0.24988   1.00
C3a      0.04254    0.74132    0.28466   1.00
C3       -0.04232   0.71510    0.24771   1.00
C3       0.04232    0.75788    0.21592   1.00
C3a      -0.04254   0.78569    0.25170   1.00
C2       0.10512    0.74995    0.24994   1.00
C2       -0.10512   0.74995    0.24993   1.00
C3       0.08405    0.74159    0.28404   1.00
C3       -0.08363   0.71504    0.24785   1.00
C3       0.08363    0.75804    0.21591   1.00
C3       -0.08405   0.78502    0.25177   1.00
C5       0.02228    0.73242    0.32287   1.00
H1       -0.02691   0.68754    0.24629   1.00
H1       0.10021    0.73529    0.31041   1.00
H1       -0.09901   0.68750    0.24637   1.00
H1       0.09901    0.76458    0.18912   1.00
H1       -0.10021   0.81209    0.25336   1.00
C5       -0.02228   0.82485    0.25421   1.00
H1       0.02691    0.76448    0.18913   1.00
H2       -0.04256   0.84696    0.26645   1.00
H2       0.00269    0.82323    0.27480   1.00
H2       0.04256    0.73775    0.34758   1.00
H2       -0.00269   0.75260    0.32727   1.00
N1       -0.00857   0.83749    0.21579   1.00
C6       -0.03073   0.84700    0.18516   1.00
C6       0.02846    0.84279    0.20499   1.00
C6       -0.00759   0.85802    0.15422   1.00
C6       0.03005    0.85535    0.16684   1.00
H3       -0.06197   0.84571    0.18503   1.00
H3       0.05300    0.83756    0.22358   1.00
H3       -0.01713   0.86702    0.12568   1.00
H3       0.05575    0.86181    0.15008   1.00
N1       0.00857    0.69199    0.32388   1.00
C6       -0.02846   0.68011    0.32584   1.00
C6       0.03073    0.65991    0.32414   1.00
C6       -0.03005   0.63996    0.32685   1.00
C6       0.00759    0.62711    0.32576   1.00
H3       -0.05300   0.69942    0.32620   1.00
H3       0.06197    0.66016    0.32288   1.00
H3       -0.05575   0.62205    0.32820   1.00
H3       0.01713    0.59718    0.32614   1.00
C4       0.47915    0.74984    0.24988   1.00
C4       0.52085    0.75016    0.25012   1.00
C3a      0.45746    0.74132    0.21534   1.00
C3       0.54232    0.71510    0.25229   1.00
C3       0.45768    0.75788    0.28408   1.00
C3a      0.54254    0.78569    0.24830   1.00
C2       0.39488    0.74995    0.25006   1.00
C2       0.60512    0.74995    0.25007   1.00
C3       0.41595    0.74159    0.21596   1.00
C3       0.58363    0.71504    0.25215   1.00
C3       0.41637    0.75804    0.28409   1.00
C3       0.58405    0.78502    0.24823   1.00
C5       0.47772    0.73242    0.17713   1.00
H1       0.52691    0.68754    0.25371   1.00
H1       0.39979    0.73529    0.18959   1.00
H1       0.59901    0.68750    0.25363   1.00
H1       0.40099    0.76458    0.31088   1.00
H1       0.60021    0.81209    0.24664   1.00
C5       0.52228    0.82485    0.24579   1.00
H1       0.47309    0.76448    0.31087   1.00
H2       0.54256    0.84696    0.23355   1.00
H2       0.49731    0.82323    0.22520   1.00
H2       0.45744    0.73775    0.15242   1.00
H2       0.50269    0.75260    0.17273   1.00
N1       0.50857    0.83749    0.28421   1.00
C6       0.53073    0.84700    0.31484   1.00
C6       0.47154    0.84279    0.29501   1.00
C6       0.50759    0.85802    0.34578   1.00
C6       0.46995    0.85535    0.33316   1.00
H3       0.56197    0.84571    0.31497   1.00
H3       0.44700    0.83756    0.27642   1.00
H3       0.51713    0.86702    0.37432   1.00
H3       0.44425    0.86181    0.34992   1.00
N1       0.49143    0.69199    0.17612   1.00
C6       0.52846    0.68011    0.17416   1.00
C6       0.46927    0.65991    0.17586   1.00
C6       0.53005    0.63996    0.17315   1.00
C6       0.49241    0.62711    0.17424   1.00
H3       0.55300    0.69942    0.17380   1.00
H3       0.43803    0.66016    0.17712   1.00
H3       0.55575    0.62205    0.17180   1.00
H3       0.48287    0.59718    0.17386   1.00
C4       0.25012    0.52085    0.24984   1.00
C4       0.24988    0.47915    0.25016   1.00
C3a      0.28466    0.54254    0.24132   1.00
C3       0.24771    0.45768    0.21510   1.00
C3       0.21592    0.54232    0.25788   1.00
C3a      0.25170    0.45746    0.28569   1.00
C2       0.24994    0.60512    0.24995   1.00
C2       0.24993    0.39488    0.24995   1.00
C3       0.28404    0.58405    0.24159   1.00
C3       0.24785    0.41637    0.21504   1.00
C3       0.21591    0.58363    0.25804   1.00
C3       0.25177    0.41595    0.28502   1.00
C5       0.32287    0.52228    0.23242   1.00
H1       0.24629    0.47309    0.18754   1.00
H1       0.31041    0.60021    0.23529   1.00
H1       0.24637    0.40099    0.18750   1.00
H1       0.18912    0.59901    0.26458   1.00
H1       0.25336    0.39979    0.31209   1.00
C5       0.25421    0.47772    0.32485   1.00
H1       0.18913    0.52691    0.26448   1.00
H2       0.26645    0.45744    0.34696   1.00
H2       0.27480    0.50269    0.32323   1.00
H2       0.34758    0.54256    0.23775   1.00
H2       0.32727    0.49731    0.25260   1.00
N1       0.21579    0.49143    0.33749   1.00
C6       0.18516    0.46927    0.34700   1.00
C6       0.20499    0.52846    0.34279   1.00
C6       0.15422    0.49241    0.35802   1.00
C6       0.16684    0.53005    0.35535   1.00
H3       0.18503    0.43803    0.34571   1.00
H3       0.22358    0.55300    0.33756   1.00
H3       0.12568    0.48287    0.36702   1.00
H3       0.15008    0.55575    0.36181   1.00
N1       0.32388    0.50857    0.19199   1.00
C6       0.32584    0.47154    0.18011   1.00
C6       0.32414    0.53073    0.15991   1.00
C6       0.32685    0.46995    0.13996   1.00
C6       0.32576    0.50759    0.12711   1.00
H3       0.32620    0.44700    0.19942   1.00
H3       0.32288    0.56197    0.16016   1.00
H3       0.32820    0.44425    0.12205   1.00
H3       0.32614    0.51713    0.09718   1.00
C4       0.24984    0.75012    0.02085   1.00
C4       0.25016    0.74988    -0.02085   1.00
C3a      0.24132    0.78466    0.04254   1.00
C3       0.21510    0.74771    -0.04232   1.00
C3       0.25788    0.71592    0.04232   1.00
C3a      0.28569    0.75170    -0.04254   1.00
C2       0.24995    0.74994    0.10512   1.00
C2       0.24995    0.74993    -0.10512   1.00
C3       0.24159    0.78404    0.08405   1.00
C3       0.21504    0.74785    -0.08363   1.00
C3       0.25804    0.71591    0.08363   1.00
C3       0.28502    0.75177    -0.08405   1.00
C5       0.23242    0.82287    0.02228   1.00
H1       0.18754    0.74629    -0.02691   1.00
H1       0.23529    0.81041    0.10021   1.00
H1       0.18750    0.74637    -0.09901   1.00
H1       0.26458    0.68912    0.09901   1.00
H1       0.31209    0.75336    -0.10021   1.00
C5       0.32485    0.75421    -0.02228   1.00
H1       0.26448    0.68913    0.02691   1.00
H2       0.34696    0.76645    -0.04256   1.00
H2       0.32323    0.77480    0.00269   1.00
H2       0.23775    0.84758    0.04256   1.00
H2       0.25260    0.82727    -0.00269   1.00
N1       0.33749    0.71579    -0.00857   1.00
C6       0.34700    0.68516    -0.03073   1.00
C6       0.34279    0.70499    0.02846   1.00
C6       0.35802    0.65422    -0.00759   1.00
C6       0.35535    0.66684    0.03005   1.00
H3       0.34571    0.68503    -0.06197   1.00
H3       0.33756    0.72358    0.05300   1.00
H3       0.36702    0.62568    -0.01713   1.00
H3       0.36181    0.65008    0.05575   1.00
N1       0.19199    0.82388    0.00857   1.00
C6       0.18011    0.82584    -0.02846   1.00
C6       0.15991    0.82414    0.03073   1.00
C6       0.13996    0.82685    -0.03005   1.00
C6       0.12711    0.82576    0.00759   1.00
H3       0.19942    0.82620    -0.05300   1.00
H3       0.16016    0.82288    0.06197   1.00
H3       0.12205    0.82820    -0.05575   1.00
H3       0.09718    0.82614    0.01713   1.00
C4       0.74984    0.24988    0.47915   1.00
C4       0.75016    0.25012    0.52085   1.00
C3a      0.74132    0.21534    0.45746   1.00
C3       0.71510    0.25229    0.54232   1.00
C3       0.75788    0.28408    0.45768   1.00
C3a      0.78569    0.24830    0.54254   1.00
C2       0.74995    0.25006    0.39488   1.00
C2       0.74995    0.25007    0.60512   1.00
C3       0.74159    0.21596    0.41595   1.00
C3       0.71504    0.25215    0.58363   1.00
C3       0.75804    0.28409    0.41637   1.00
C3       0.78502    0.24823    0.58405   1.00
C5       0.73242    0.17713    0.47772   1.00
H1       0.68754    0.25371    0.52691   1.00
H1       0.73529    0.18959    0.39979   1.00
H1       0.68750    0.25363    0.59901   1.00
H1       0.76458    0.31088    0.40099   1.00
H1       0.81209    0.24664    0.60021   1.00
C5       0.82485    0.24579    0.52228   1.00
H1       0.76448    0.31087    0.47309   1.00
H2       0.84696    0.23355    0.54256   1.00
H2       0.82323    0.22520    0.49731   1.00
H2       0.73775    0.15242    0.45744   1.00
H2       0.75260    0.17273    0.50269   1.00
N1       0.83749    0.28421    0.50857   1.00
C6       0.84700    0.31484    0.53073   1.00
C6       0.84279    0.29501    0.47154   1.00
C6       0.85802    0.34578    0.50759   1.00
C6       0.85535    0.33316    0.46995   1.00
H3       0.84571    0.31497    0.56197   1.00
H3       0.83756    0.27642    0.44700   1.00
H3       0.86702    0.37432    0.51713   1.00
H3       0.86181    0.34992    0.44425   1.00
N1       0.69199    0.17612    0.49143   1.00
C6       0.68011    0.17416    0.52846   1.00
C6       0.65991    0.17586    0.46927   1.00
C6       0.63996    0.17315    0.53005   1.00
C6       0.62711    0.17424    0.49241   1.00
H3       0.69942    0.17380    0.55300   1.00
H3       0.66016    0.17712    0.43803   1.00
H3       0.62205    0.17180    0.55575   1.00
H3       0.59718    0.17386    0.48287   1.00
C4       0.74988    0.47915    0.24984   1.00
C4       0.75012    0.52085    0.25016   1.00
C3a      0.71534    0.45746    0.24132   1.00
C3       0.75229    0.54232    0.21510   1.00
C3       0.78408    0.45768    0.25788   1.00
C3a      0.74830    0.54254    0.28569   1.00
C2       0.75006    0.39488    0.24995   1.00
C2       0.75007    0.60512    0.24995   1.00
C3       0.71596    0.41595    0.24159   1.00
C3       0.75215    0.58363    0.21504   1.00
C3       0.78409    0.41637    0.25804   1.00
C3       0.74823    0.58405    0.28502   1.00
C5       0.67713    0.47772    0.23242   1.00
H1       0.75371    0.52691    0.18754   1.00
H1       0.68959    0.39979    0.23529   1.00
H1       0.75363    0.59901    0.18750   1.00
H1       0.81088    0.40099    0.26458   1.00
H1       0.74664    0.60021    0.31209   1.00
C5       0.74579    0.52228    0.32485   1.00
H1       0.81087    0.47309    0.26448   1.00
H2       0.73355    0.54256    0.34696   1.00
H2       0.72520    0.49731    0.32323   1.00
H2       0.65242    0.45744    0.23775   1.00
H2       0.67273    0.50269    0.25260   1.00
N1       0.78421    0.50857    0.33749   1.00
C6       0.81484    0.53073    0.34700   1.00
C6       0.79501    0.47154    0.34279   1.00
C6       0.84578    0.50759    0.35802   1.00
C6       0.83316    0.46995    0.35535   1.00
H3       0.81497    0.56197    0.34571   1.00
H3       0.77642    0.44700    0.33756   1.00
H3       0.87432    0.51713    0.36702   1.00
H3       0.84992    0.44425    0.36181   1.00
N1       0.67612    0.49143    0.19199   1.00
C6       0.67416    0.52846    0.18011   1.00
C6       0.67586    0.46927    0.15991   1.00
C6       0.67315    0.53005    0.13996   1.00
C6       0.67424    0.49241    0.12711   1.00
H3       0.67380    0.55300    0.19942   1.00
H3       0.67712    0.43803    0.16016   1.00
H3       0.67180    0.55575    0.12205   1.00
H3       0.67386    0.48287    0.09718   1.00
C4       0.52085    0.24984    0.25012   1.00
C4       0.47915    0.25016    0.24988   1.00
C3a      0.54254    0.24132    0.28466   1.00
C3       0.45768    0.21510    0.24771   1.00
C3       0.54232    0.25788    0.21592   1.00
C3a      0.45746    0.28569    0.25170   1.00
C2       0.60512    0.24995    0.24994   1.00
C2       0.39488    0.24995    0.24993   1.00
C3       0.58405    0.24159    0.28404   1.00
C3       0.41637    0.21504    0.24785   1.00
C3       0.58363    0.25804    0.21591   1.00
C3       0.41595    0.28502    0.25177   1.00
C5       0.52228    0.23242    0.32287   1.00
H1       0.47309    0.18754    0.24629   1.00
H1       0.60021    0.23529    0.31041   1.00
H1       0.40099    0.18750    0.24637   1.00
H1       0.59901    0.26458    0.18912   1.00
H1       0.39979    0.31209    0.25336   1.00
C5       0.47772    0.32485    0.25421   1.00
H1       0.52691    0.26448    0.18913   1.00
H2       0.45744    0.34696    0.26645   1.00
H2       0.50269    0.32323    0.27480   1.00
H2       0.54256    0.23775    0.34758   1.00
H2       0.49731    0.25260    0.32727   1.00
N1       0.49143    0.33749    0.21579   1.00
C6       0.46927    0.34700    0.18516   1.00
C6       0.52846    0.34279    0.20499   1.00
C6       0.49241    0.35802    0.15422   1.00
C6       0.53005    0.35535    0.16684   1.00
H3       0.43803    0.34571    0.18503   1.00
H3       0.55300    0.33756    0.22358   1.00
H3       0.48287    0.36702    0.12568   1.00
H3       0.55575    0.36181    0.15008   1.00
N1       0.50857    0.19199    0.32388   1.00
C6       0.47154    0.18011    0.32584   1.00
C6       0.53073    0.15991    0.32414   1.00
C6       0.46995    0.13996    0.32685   1.00
C6       0.50759    0.12711    0.32576   1.00
H3       0.44700    0.19942    0.32620   1.00
H3       0.56197    0.16016    0.32288   1.00
H3       0.44425    0.12205    0.32820   1.00
H3       0.51713    0.09718    0.32614   1.00
C4       0.97915    0.24984    0.24988   1.00
C4       1.02085    0.25016    0.25012   1.00
C3a      0.95746    0.24132    0.21534   1.00
C3       1.04232    0.21510    0.25229   1.00
C3       0.95768    0.25788    0.28408   1.00
C3a      1.04254    0.28569    0.24830   1.00
C2       0.89488    0.24995    0.25006   1.00
C2       1.10512    0.24995    0.25007   1.00
C3       0.91595    0.24159    0.21596   1.00
C3       1.08363    0.21504    0.25215   1.00
C3       0.91637    0.25804    0.28409   1.00
C3       1.08405    0.28502    0.24823   1.00
C5       0.97772    0.23242    0.17713   1.00
H1       1.02691    0.18754    0.25371   1.00
H1       0.89979    0.23529    0.18959   1.00
H1       1.09901    0.18750    0.25363   1.00
H1       0.90099    0.26458    0.31088   1.00
H1       1.10021    0.31209    0.24664   1.00
C5       1.02228    0.32485    0.24579   1.00
H1       0.97309    0.26448    0.31087   1.00
H2       1.04256    0.34696    0.23355   1.00
H2       0.99731    0.32323    0.22520   1.00
H2       0.95744    0.23775    0.15242   1.00
H2       1.00269    0.25260    0.17273   1.00
N1       1.00857    0.33749    0.28421   1.00
C6       1.03073    0.34700    0.31484   1.00
C6       0.97154    0.34279    0.29501   1.00
C6       1.00759    0.35802    0.34578   1.00
C6       0.96995    0.35535    0.33316   1.00
H3       1.06197    0.34571    0.31497   1.00
H3       0.94700    0.33756    0.27642   1.00
H3       1.01713    0.36702    0.37432   1.00
H3       0.94425    0.36181    0.34992   1.00
N1       0.99143    0.19199    0.17612   1.00
C6       1.02846    0.18011    0.17416   1.00
C6       0.96927    0.15991    0.17586   1.00
C6       1.03005    0.13996    0.17315   1.00
C6       0.99241    0.12711    0.17424   1.00
H3       1.05300    0.19942    0.17380   1.00
H3       0.93803    0.16016    0.17712   1.00
H3       1.05575    0.12205    0.17180   1.00
H3       0.98287    0.09718    0.17386   1.00
C4       0.75012    0.02085    0.24984   1.00
C4       0.74988    -0.02085   0.25016   1.00
C3a      0.78466    0.04254    0.24132   1.00
C3       0.74771    -0.04232   0.21510   1.00
C3       0.71592    0.04232    0.25788   1.00
C3a      0.75170    -0.04254   0.28569   1.00
C2       0.74994    0.10512    0.24995   1.00
C2       0.74993    -0.10512   0.24995   1.00
C3       0.78404    0.08405    0.24159   1.00
C3       0.74785    -0.08363   0.21504   1.00
C3       0.71591    0.08363    0.25804   1.00
C3       0.75177    -0.08405   0.28502   1.00
C5       0.82287    0.02228    0.23242   1.00
H1       0.74629    -0.02691   0.18754   1.00
H1       0.81041    0.10021    0.23529   1.00
H1       0.74637    -0.09901   0.18750   1.00
H1       0.68912    0.09901    0.26458   1.00
H1       0.75336    -0.10021   0.31209   1.00
C5       0.75421    -0.02228   0.32485   1.00
H1       0.68913    0.02691    0.26448   1.00
H2       0.76645    -0.04256   0.34696   1.00
H2       0.77480    0.00269    0.32323   1.00
H2       0.84758    0.04256    0.23775   1.00
H2       0.82727    -0.00269   0.25260   1.00
N1       0.71579    -0.00857   0.33749   1.00
C6       0.68516    -0.03073   0.34700   1.00
C6       0.70499    0.02846    0.34279   1.00
C6       0.65422    -0.00759   0.35802   1.00
C6       0.66684    0.03005    0.35535   1.00
H3       0.68503    -0.06197   0.34571   1.00
H3       0.72358    0.05300    0.33756   1.00
H3       0.62568    -0.01713   0.36702   1.00
H3       0.65008    0.05575    0.36181   1.00
N1       0.82388    0.00857    0.19199   1.00
C6       0.82584    -0.02846   0.18011   1.00
C6       0.82414    0.03073    0.15991   1.00
C6       0.82685    -0.03005   0.13996   1.00
C6       0.82576    0.00759    0.12711   1.00
H3       0.82620    -0.05300   0.19942   1.00
H3       0.82288    0.06197    0.16016   1.00
H3       0.82820    -0.05575   0.12205   1.00
H3       0.82614    0.01713    0.09718   1.00
C4       0.74984    0.25012    0.02085   1.00
C4       0.75016    0.24988    -0.02085   1.00
C3a      0.74132    0.28466    0.04254   1.00
C3       0.71510    0.24771    -0.04232   1.00
C3       0.75788    0.21592    0.04232   1.00
C3a      0.78569    0.25170    -0.04254   1.00
C2       0.74995    0.24994    0.10512   1.00
C2       0.74995    0.24993    -0.10512   1.00
C3       0.74159    0.28404    0.08405   1.00
C3       0.71504    0.24785    -0.08363   1.00
C3       0.75804    0.21591    0.08363   1.00
C3       0.78502    0.25177    -0.08405   1.00
C5       0.73242    0.32287    0.02228   1.00
H1       0.68754    0.24629    -0.02691   1.00
H1       0.73529    0.31041    0.10021   1.00
H1       0.68750    0.24637    -0.09901   1.00
H1       0.76458    0.18912    0.09901   1.00
H1       0.81209    0.25336    -0.10021   1.00
C5       0.82485    0.25421    -0.02228   1.00
H1       0.76448    0.18913    0.02691   1.00
H2       0.84696    0.26645    -0.04256   1.00
H2       0.82323    0.27480    0.00269   1.00
H2       0.73775    0.34758    0.04256   1.00
H2       0.75260    0.32727    -0.00269   1.00
N1       0.83749    0.21579    -0.00857   1.00
C6       0.84700    0.18516    -0.03073   1.00
C6       0.84279    0.20499    0.02846   1.00
C6       0.85802    0.15422    -0.00759   1.00
C6       0.85535    0.16684    0.03005   1.00
H3       0.84571    0.18503    -0.06197   1.00
H3       0.83756    0.22358    0.05300   1.00
H3       0.86702    0.12568    -0.01713   1.00
H3       0.86181    0.15008    0.05575   1.00
N1       0.69199    0.32388    0.00857   1.00
C6       0.68011    0.32584    -0.02846   1.00
C6       0.65991    0.32414    0.03073   1.00
C6       0.63996    0.32685    -0.03005   1.00
C6       0.62711    0.32576    0.00759   1.00
H3       0.69942    0.32620    -0.05300   1.00
H3       0.66016    0.32288    0.06197   1.00
H3       0.62205    0.32820    -0.05575   1.00
H3       0.59718    0.32614    0.01713   1.00
C4       0.91484    0.91488    1.14415   1.00
C4       0.91516    0.91512    1.18585   1.00
C3a      0.90632    0.88034    1.12246   1.00
C3       0.88010    0.91729    1.20732   1.00
C3       0.92288    0.94908    1.12268   1.00
C3a      0.95069    0.91330    1.20754   1.00
C2       0.91495    0.91506    1.05988   1.00
C2       0.91495    0.91507    1.27012   1.00
C3       0.90659    0.88096    1.08095   1.00
C3       0.88004    0.91715    1.24863   1.00
C3       0.92304    0.94909    1.08137   1.00
C3       0.95002    0.91323    1.24905   1.00
C5       0.89742    0.84213    1.14272   1.00
H1       0.85254    0.91871    1.19191   1.00
H1       0.90029    0.85459    1.06479   1.00
H1       0.85250    0.91863    1.26401   1.00
H1       0.92958    0.97588    1.06599   1.00
H1       0.97709    0.91164    1.26521   1.00
C5       0.98985    0.91079    1.18728   1.00
H1       0.92948    0.97587    1.13809   1.00
H2       1.01196    0.89855    1.20756   1.00
H2       0.98823    0.89020    1.16231   1.00
H2       0.90275    0.81742    1.12244   1.00
H2       0.91760    0.83773    1.16769   1.00
N1       1.00249    0.94921    1.17357   1.00
C6       1.01200    0.97984    1.19573   1.00
C6       1.00779    0.96001    1.13654   1.00
C6       1.02302    1.01078    1.17259   1.00
C6       1.02035    0.99816    1.13495   1.00
H3       1.01071    0.97997    1.22697   1.00
H3       1.00256    0.94142    1.11200   1.00
H3       1.03202    1.03932    1.18213   1.00
H3       1.02681    1.01492    1.10925   1.00
N1       0.85699    0.84112    1.15643   1.00
C6       0.84511    0.83916    1.19346   1.00
C6       0.82491    0.84086    1.13427   1.00
C6       0.80496    0.83815    1.19505   1.00
C6       0.79211    0.83924    1.15741   1.00
H3       0.86442    0.83880    1.21800   1.00
H3       0.82516    0.84212    1.10303   1.00
H3       0.78705    0.83680    1.22075   1.00
H3       0.76218    0.83886    1.14787   1.00
C4       0.91488    1.14415    0.91484   1.00
C4       0.91512    1.18585    0.91516   1.00
C3a      0.88034    1.12246    0.90632   1.00
C3       0.91729    1.20732    0.88010   1.00
C3       0.94908    1.12268    0.92288   1.00
C3a      0.91330    1.20754    0.95069   1.00
C2       0.91506    1.05988    0.91495   1.00
C2       0.91507    1.27012    0.91495   1.00
C3       0.88096    1.08095    0.90659   1.00
C3       0.91715    1.24863    0.88004   1.00
C3       0.94909    1.08137    0.92304   1.00
C3       0.91323    1.24905    0.95002   1.00
C5       0.84213    1.14272    0.89742   1.00
H1       0.91871    1.19191    0.85254   1.00
H1       0.85459    1.06479    0.90029   1.00
H1       0.91863    1.26401    0.85250   1.00
H1       0.97588    1.06599    0.92958   1.00
H1       0.91164    1.26521    0.97709   1.00
C5       0.91079    1.18728    0.98985   1.00
H1       0.97587    1.13809    0.92948   1.00
H2       0.89855    1.20756    1.01196   1.00
H2       0.89020    1.16231    0.98823   1.00
H2       0.81742    1.12244    0.90275   1.00
H2       0.83773    1.16769    0.91760   1.00
N1       0.94921    1.17357    1.00249   1.00
C6       0.97984    1.19573    1.01200   1.00
C6       0.96001    1.13654    1.00779   1.00
C6       1.01078    1.17259    1.02302   1.00
C6       0.99816    1.13495    1.02035   1.00
H3       0.97997    1.22697    1.01071   1.00
H3       0.94142    1.11200    1.00256   1.00
H3       1.03932    1.18213    1.03202   1.00
H3       1.01492    1.10925    1.02681   1.00
N1       0.84112    1.15643    0.85699   1.00
C6       0.83916    1.19346    0.84511   1.00
C6       0.84086    1.13427    0.82491   1.00
C6       0.83815    1.19505    0.80496   1.00
C6       0.83924    1.15741    0.79211   1.00
H3       0.83880    1.21800    0.86442   1.00
H3       0.84212    1.10303    0.82516   1.00
H3       0.83680    1.22075    0.78705   1.00
H3       0.83886    1.14787    0.76218   1.00
C4       0.68585    0.91484    0.91512   1.00
C4       0.64415    0.91516    0.91488   1.00
C3a      0.70754    0.90632    0.94966   1.00
C3       0.62268    0.88010    0.91271   1.00
C3       0.70732    0.92288    0.88092   1.00
C3a      0.62246    0.95069    0.91670   1.00
C2       0.77012    0.91495    0.91494   1.00
C2       0.55988    0.91495    0.91493   1.00
C3       0.74905    0.90659    0.94904   1.00
C3       0.58137    0.88004    0.91285   1.00
C3       0.74863    0.92304    0.88091   1.00
C3       0.58095    0.95002    0.91677   1.00
C5       0.68728    0.89742    0.98787   1.00
H1       0.63809    0.85254    0.91129   1.00
H1       0.76521    0.90029    0.97541   1.00
H1       0.56599    0.85250    0.91137   1.00
H1       0.76401    0.92958    0.85412   1.00
H1       0.56479    0.97709    0.91836   1.00
C5       0.64272    0.98985    0.91921   1.00
H1       0.69191    0.92948    0.85413   1.00
H2       0.62244    1.01196    0.93145   1.00
H2       0.66769    0.98823    0.93980   1.00
H2       0.70756    0.90275    1.01258   1.00
H2       0.66231    0.91760    0.99227   1.00
N1       0.65643    1.00249    0.88079   1.00
C6       0.63427    1.01200    0.85016   1.00
C6       0.69346    1.00779    0.86999   1.00
C6       0.65741    1.02302    0.81922   1.00
C6       0.69505    1.02035    0.83184   1.00
H3       0.60303    1.01071    0.85003   1.00
H3       0.71800    1.00256    0.88858   1.00
H3       0.64787    1.03202    0.79068   1.00
H3       0.72075    1.02681    0.81508   1.00
N1       0.67357    0.85699    0.98888   1.00
C6       0.63654    0.84511    0.99084   1.00
C6       0.69573    0.82491    0.98914   1.00
C6       0.63495    0.80496    0.99185   1.00
C6       0.67259    0.79211    0.99076   1.00
H3       0.61200    0.86442    0.99120   1.00
H3       0.72697    0.82516    0.98788   1.00
H3       0.60925    0.78705    0.99320   1.00
H3       0.68213    0.76218    0.99114   1.00
C4       1.14415    0.91484    0.91488   1.00
C4       1.18585    0.91516    0.91512   1.00
C3a      1.12246    0.90632    0.88034   1.00
C3       1.20732    0.88010    0.91729   1.00
C3       1.12268    0.92288    0.94908   1.00
C3a      1.20754    0.95069    0.91330   1.00
C2       1.05988    0.91495    0.91506   1.00
C2       1.27012    0.91495    0.91507   1.00
C3       1.08095    0.90659    0.88096   1.00
C3       1.24863    0.88004    0.91715   1.00
C3       1.08137    0.92304    0.94909   1.00
C3       1.24905    0.95002    0.91323   1.00
C5       1.14272    0.89742    0.84213   1.00
H1       1.19191    0.85254    0.91871   1.00
H1       1.06479    0.90029    0.85459   1.00
H1       1.26401    0.85250    0.91863   1.00
H1       1.06599    0.92958    0.97588   1.00
H1       1.26521    0.97709    0.91164   1.00
C5       1.18728    0.98985    0.91079   1.00
H1       1.13809    0.92948    0.97587   1.00
H2       1.20756    1.01196    0.89855   1.00
H2       1.16231    0.98823    0.89020   1.00
H2       1.12244    0.90275    0.81742   1.00
H2       1.16769    0.91760    0.83773   1.00
N1       1.17357    1.00249    0.94921   1.00
C6       1.19573    1.01200    0.97984   1.00
C6       1.13654    1.00779    0.96001   1.00
C6       1.17259    1.02302    1.01078   1.00
C6       1.13495    1.02035    0.99816   1.00
H3       1.22697    1.01071    0.97997   1.00
H3       1.11200    1.00256    0.94142   1.00
H3       1.18213    1.03202    1.03932   1.00
H3       1.10925    1.02681    1.01492   1.00
N1       1.15643    0.85699    0.84112   1.00
C6       1.19346    0.84511    0.83916   1.00
C6       1.13427    0.82491    0.84086   1.00
C6       1.19505    0.80496    0.83815   1.00
C6       1.15741    0.79211    0.83924   1.00
H3       1.21800    0.86442    0.83880   1.00
H3       1.10303    0.82516    0.84212   1.00
H3       1.22075    0.78705    0.83680   1.00
H3       1.14787    0.76218    0.83886   1.00
C4       0.91512    0.68585    0.91484   1.00
C4       0.91488    0.64415    0.91516   1.00
C3a      0.94966    0.70754    0.90632   1.00
C3       0.91271    0.62268    0.88010   1.00
C3       0.88092    0.70732    0.92288   1.00
C3a      0.91670    0.62246    0.95069   1.00
C2       0.91494    0.77012    0.91495   1.00
C2       0.91493    0.55988    0.91495   1.00
C3       0.94904    0.74905    0.90659   1.00
C3       0.91285    0.58137    0.88004   1.00
C3       0.88091    0.74863    0.92304   1.00
C3       0.91677    0.58095    0.95002   1.00
C5       0.98787    0.68728    0.89742   1.00
H1       0.91129    0.63809    0.85254   1.00
H1       0.97541    0.76521    0.90029   1.00
H1       0.91137    0.56599    0.85250   1.00
H1       0.85412    0.76401    0.92958   1.00
H1       0.91836    0.56479    0.97709   1.00
C5       0.91921    0.64272    0.98985   1.00
H1       0.85413    0.69191    0.92948   1.00
H2       0.93145    0.62244    1.01196   1.00
H2       0.93980    0.66769    0.98823   1.00
H2       1.01258    0.70756    0.90275   1.00
H2       0.99227    0.66231    0.91760   1.00
N1       0.88079    0.65643    1.00249   1.00
C6       0.85016    0.63427    1.01200   1.00
C6       0.86999    0.69346    1.00779   1.00
C6       0.81922    0.65741    1.02302   1.00
C6       0.83184    0.69505    1.02035   1.00
H3       0.85003    0.60303    1.01071   1.00
H3       0.88858    0.71800    1.00256   1.00
H3       0.79068    0.64787    1.03202   1.00
H3       0.81508    0.72075    1.02681   1.00
N1       0.98888    0.67357    0.85699   1.00
C6       0.99084    0.63654    0.84511   1.00
C6       0.98914    0.69573    0.82491   1.00
C6       0.99185    0.63495    0.80496   1.00
C6       0.99076    0.67259    0.79211   1.00
H3       0.99120    0.61200    0.86442   1.00
H3       0.98788    0.72697    0.82516   1.00
H3       0.99320    0.60925    0.78705   1.00
H3       0.99114    0.68213    0.76218   1.00
C4       0.91484    0.91512    0.68585   1.00
C4       0.91516    0.91488    0.64415   1.00
C3a      0.90632    0.94966    0.70754   1.00
C3       0.88010    0.91271    0.62268   1.00
C3       0.92288    0.88092    0.70732   1.00
C3a      0.95069    0.91670    0.62246   1.00
C2       0.91495    0.91494    0.77012   1.00
C2       0.91495    0.91493    0.55988   1.00
C3       0.90659    0.94904    0.74905   1.00
C3       0.88004    0.91285    0.58137   1.00
C3       0.92304    0.88091    0.74863   1.00
C3       0.95002    0.91677    0.58095   1.00
C5       0.89742    0.98787    0.68728   1.00
H1       0.85254    0.91129    0.63809   1.00
H1       0.90029    0.97541    0.76521   1.00
H1       0.85250    0.91137    0.56599   1.00
H1       0.92958    0.85412    0.76401   1.00
H1       0.97709    0.91836    0.56479   1.00
C5       0.98985    0.91921    0.64272   1.00
H1       0.92948    0.85413    0.69191   1.00
H2       1.01196    0.93145    0.62244   1.00
H2       0.98823    0.93980    0.66769   1.00
H2       0.90275    1.01258    0.70756   1.00
H2       0.91760    0.99227    0.66231   1.00
N1       1.00249    0.88079    0.65643   1.00
C6       1.01200    0.85016    0.63427   1.00
C6       1.00779    0.86999    0.69346   1.00
C6       1.02302    0.81922    0.65741   1.00
C6       1.02035    0.83184    0.69505   1.00
H3       1.01071    0.85003    0.60303   1.00
H3       1.00256    0.88858    0.71800   1.00
H3       1.03202    0.79068    0.64787   1.00
H3       1.02681    0.81508    0.72075   1.00
N1       0.85699    0.98888    0.67357   1.00
C6       0.84511    0.99084    0.63654   1.00
C6       0.82491    0.98914    0.69573   1.00
C6       0.80496    0.99185    0.63495   1.00
C6       0.79211    0.99076    0.67259   1.00
H3       0.86442    0.99120    0.61200   1.00
H3       0.82516    0.98788    0.72697   1.00
H3       0.78705    0.99320    0.60925   1.00
H3       0.76218    0.99114    0.68213   1.00
C4       0.41484    0.41488    1.14415   1.00
C4       0.41516    0.41512    1.18585   1.00
C3a      0.40632    0.38034    1.12246   1.00
C3       0.38010    0.41729    1.20732   1.00
C3       0.42288    0.44908    1.12268   1.00
C3a      0.45069    0.41330    1.20754   1.00
C2       0.41495    0.41506    1.05988   1.00
C2       0.41495    0.41507    1.27012   1.00
C3       0.40659    0.38096    1.08095   1.00
C3       0.38004    0.41715    1.24863   1.00
C3       0.42304    0.44909    1.08137   1.00
C3       0.45002    0.41323    1.24905   1.00
C5       0.39742    0.34213    1.14272   1.00
H1       0.35254    0.41871    1.19191   1.00
H1       0.40029    0.35459    1.06479   1.00
H1       0.35250    0.41863    1.26401   1.00
H1       0.42958    0.47588    1.06599   1.00
H1       0.47709    0.41164    1.26521   1.00
C5       0.48985    0.41079    1.18728   1.00
H1       0.42948    0.47587    1.13809   1.00
H2       0.51196    0.39855    1.20756   1.00
H2       0.48823    0.39020    1.16231   1.00
H2       0.40275    0.31742    1.12244   1.00
H2       0.41760    0.33773    1.16769   1.00
N1       0.50249    0.44921    1.17357   1.00
C6       0.51200    0.47984    1.19573   1.00
C6       0.50779    0.46001    1.13654   1.00
C6       0.52302    0.51078    1.17259   1.00
C6       0.52035    0.49816    1.13495   1.00
H3       0.51071    0.47997    1.22697   1.00
H3       0.50256    0.44142    1.11200   1.00
H3       0.53202    0.53932    1.18213   1.00
H3       0.52681    0.51492    1.10925   1.00
N1       0.35699    0.34112    1.15643   1.00
C6       0.34511    0.33916    1.19346   1.00
C6       0.32491    0.34086    1.13427   1.00
C6       0.30496    0.33815    1.19505   1.00
C6       0.29211    0.33924    1.15741   1.00
H3       0.36442    0.33880    1.21800   1.00
H3       0.32516    0.34212    1.10303   1.00
H3       0.28705    0.33680    1.22075   1.00
H3       0.26218    0.33886    1.14787   1.00
C4       0.41488    0.64415    0.91484   1.00
C4       0.41512    0.68585    0.91516   1.00
C3a      0.38034    0.62246    0.90632   1.00
C3       0.41729    0.70732    0.88010   1.00
C3       0.44908    0.62268    0.92288   1.00
C3a      0.41330    0.70754    0.95069   1.00
C2       0.41506    0.55988    0.91495   1.00
C2       0.41507    0.77012    0.91495   1.00
C3       0.38096    0.58095    0.90659   1.00
C3       0.41715    0.74863    0.88004   1.00
C3       0.44909    0.58137    0.92304   1.00
C3       0.41323    0.74905    0.95002   1.00
C5       0.34213    0.64272    0.89742   1.00
H1       0.41871    0.69191    0.85254   1.00
H1       0.35459    0.56479    0.90029   1.00
H1       0.41863    0.76401    0.85250   1.00
H1       0.47588    0.56599    0.92958   1.00
H1       0.41164    0.76521    0.97709   1.00
C5       0.41079    0.68728    0.98985   1.00
H1       0.47587    0.63809    0.92948   1.00
H2       0.39855    0.70756    1.01196   1.00
H2       0.39020    0.66231    0.98823   1.00
H2       0.31742    0.62244    0.90275   1.00
H2       0.33773    0.66769    0.91760   1.00
N1       0.44921    0.67357    1.00249   1.00
C6       0.47984    0.69573    1.01200   1.00
C6       0.46001    0.63654    1.00779   1.00
C6       0.51078    0.67259    1.02302   1.00
C6       0.49816    0.63495    1.02035   1.00
H3       0.47997    0.72697    1.01071   1.00
H3       0.44142    0.61200    1.00256   1.00
H3       0.53932    0.68213    1.03202   1.00
H3       0.51492    0.60925    1.02681   1.00
N1       0.34112    0.65643    0.85699   1.00
C6       0.33916    0.69346    0.84511   1.00
C6       0.34086    0.63427    0.82491   1.00
C6       0.33815    0.69505    0.80496   1.00
C6       0.33924    0.65741    0.79211   1.00
H3       0.33880    0.71800    0.86442   1.00
H3       0.34212    0.60303    0.82516   1.00
H3       0.33680    0.72075    0.78705   1.00
H3       0.33886    0.64787    0.76218   1.00
C4       0.18585    0.41484    0.91512   1.00
C4       0.14415    0.41516    0.91488   1.00
C3a      0.20754    0.40632    0.94966   1.00
C3       0.12268    0.38010    0.91271   1.00
C3       0.20732    0.42288    0.88092   1.00
C3a      0.12246    0.45069    0.91670   1.00
C2       0.27012    0.41495    0.91494   1.00
C2       0.05988    0.41495    0.91493   1.00
C3       0.24905    0.40659    0.94904   1.00
C3       0.08137    0.38004    0.91285   1.00
C3       0.24863    0.42304    0.88091   1.00
C3       0.08095    0.45002    0.91677   1.00
C5       0.18728    0.39742    0.98787   1.00
H1       0.13809    0.35254    0.91129   1.00
H1       0.26521    0.40029    0.97541   1.00
H1       0.06599    0.35250    0.91137   1.00
H1       0.26401    0.42958    0.85412   1.00
H1       0.06479    0.47709    0.91836   1.00
C5       0.14272    0.48985    0.91921   1.00
H1       0.19191    0.42948    0.85413   1.00
H2       0.12244    0.51196    0.93145   1.00
H2       0.16769    0.48823    0.93980   1.00
H2       0.20756    0.40275    1.01258   1.00
H2       0.16231    0.41760    0.99227   1.00
N1       0.15643    0.50249    0.88079   1.00
C6       0.13427    0.51200    0.85016   1.00
C6       0.19346    0.50779    0.86999   1.00
C6       0.15741    0.52302    0.81922   1.00
C6       0.19505    0.52035    0.83184   1.00
H3       0.10303    0.51071    0.85003   1.00
H3       0.21800    0.50256    0.88858   1.00
H3       0.14787    0.53202    0.79068   1.00
H3       0.22075    0.52681    0.81508   1.00
N1       0.17357    0.35699    0.98888   1.00
C6       0.13654    0.34511    0.99084   1.00
C6       0.19573    0.32491    0.98914   1.00
C6       0.13495    0.30496    0.99185   1.00
C6       0.17259    0.29211    0.99076   1.00
H3       0.11200    0.36442    0.99120   1.00
H3       0.22697    0.32516    0.98788   1.00
H3       0.10925    0.28705    0.99320   1.00
H3       0.18213    0.26218    0.99114   1.00
C4       0.64415    0.41484    0.91488   1.00
C4       0.68585    0.41516    0.91512   1.00
C3a      0.62246    0.40632    0.88034   1.00
C3       0.70732    0.38010    0.91729   1.00
C3       0.62268    0.42288    0.94908   1.00
C3a      0.70754    0.45069    0.91330   1.00
C2       0.55988    0.41495    0.91506   1.00
C2       0.77012    0.41495    0.91507   1.00
C3       0.58095    0.40659    0.88096   1.00
C3       0.74863    0.38004    0.91715   1.00
C3       0.58137    0.42304    0.94909   1.00
C3       0.74905    0.45002    0.91323   1.00
C5       0.64272    0.39742    0.84213   1.00
H1       0.69191    0.35254    0.91871   1.00
H1       0.56479    0.40029    0.85459   1.00
H1       0.76401    0.35250    0.91863   1.00
H1       0.56599    0.42958    0.97588   1.00
H1       0.76521    0.47709    0.91164   1.00
C5       0.68728    0.48985    0.91079   1.00
H1       0.63809    0.42948    0.97587   1.00
H2       0.70756    0.51196    0.89855   1.00
H2       0.66231    0.48823    0.89020   1.00
H2       0.62244    0.40275    0.81742   1.00
H2       0.66769    0.41760    0.83773   1.00
N1       0.67357    0.50249    0.94921   1.00
C6       0.69573    0.51200    0.97984   1.00
C6       0.63654    0.50779    0.96001   1.00
C6       0.67259    0.52302    1.01078   1.00
C6       0.63495    0.52035    0.99816   1.00
H3       0.72697    0.51071    0.97997   1.00
H3       0.61200    0.50256    0.94142   1.00
H3       0.68213    0.53202    1.03932   1.00
H3       0.60925    0.52681    1.01492   1.00
N1       0.65643    0.35699    0.84112   1.00
C6       0.69346    0.34511    0.83916   1.00
C6       0.63427    0.32491    0.84086   1.00
C6       0.69505    0.30496    0.83815   1.00
C6       0.65741    0.29211    0.83924   1.00
H3       0.71800    0.36442    0.83880   1.00
H3       0.60303    0.32516    0.84212   1.00
H3       0.72075    0.28705    0.83680   1.00
H3       0.64787    0.26218    0.83886   1.00
C4       0.41512    0.18585    0.91484   1.00
C4       0.41488    0.14415    0.91516   1.00
C3a      0.44966    0.20754    0.90632   1.00
C3       0.41271    0.12268    0.88010   1.00
C3       0.38092    0.20732    0.92288   1.00
C3a      0.41670    0.12246    0.95069   1.00
C2       0.41494    0.27012    0.91495   1.00
C2       0.41493    0.05988    0.91495   1.00
C3       0.44904    0.24905    0.90659   1.00
C3       0.41285    0.08137    0.88004   1.00
C3       0.38091    0.24863    0.92304   1.00
C3       0.41677    0.08095    0.95002   1.00
C5       0.48787    0.18728    0.89742   1.00
H1       0.41129    0.13809    0.85254   1.00
H1       0.47541    0.26521    0.90029   1.00
H1       0.41137    0.06599    0.85250   1.00
H1       0.35412    0.26401    0.92958   1.00
H1       0.41836    0.06479    0.97709   1.00
C5       0.41921    0.14272    0.98985   1.00
H1       0.35413    0.19191    0.92948   1.00
H2       0.43145    0.12244    1.01196   1.00
H2       0.43980    0.16769    0.98823   1.00
H2       0.51258    0.20756    0.90275   1.00
H2       0.49227    0.16231    0.91760   1.00
N1       0.38079    0.15643    1.00249   1.00
C6       0.35016    0.13427    1.01200   1.00
C6       0.36999    0.19346    1.00779   1.00
C6       0.31922    0.15741    1.02302   1.00
C6       0.33184    0.19505    1.02035   1.00
H3       0.35003    0.10303    1.01071   1.00
H3       0.38858    0.21800    1.00256   1.00
H3       0.29068    0.14787    1.03202   1.00
H3       0.31508    0.22075    1.02681   1.00
N1       0.48888    0.17357    0.85699   1.00
C6       0.49084    0.13654    0.84511   1.00
C6       0.48914    0.19573    0.82491   1.00
C6       0.49185    0.13495    0.80496   1.00
C6       0.49076    0.17259    0.79211   1.00
H3       0.49120    0.11200    0.86442   1.00
H3       0.48788    0.22697    0.82516   1.00
H3       0.49320    0.10925    0.78705   1.00
H3       0.49114    0.18213    0.76218   1.00
C4       0.41484    0.41512    0.68585   1.00
C4       0.41516    0.41488    0.64415   1.00
C3a      0.40632    0.44966    0.70754   1.00
C3       0.38010    0.41271    0.62268   1.00
C3       0.42288    0.38092    0.70732   1.00
C3a      0.45069    0.41670    0.62246   1.00
C2       0.41495    0.41494    0.77012   1.00
C2       0.41495    0.41493    0.55988   1.00
C3       0.40659    0.44904    0.74905   1.00
C3       0.38004    0.41285    0.58137   1.00
C3       0.42304    0.38091    0.74863   1.00
C3       0.45002    0.41677    0.58095   1.00
C5       0.39742    0.48787    0.68728   1.00
H1       0.35254    0.41129    0.63809   1.00
H1       0.40029    0.47541    0.76521   1.00
H1       0.35250    0.41137    0.56599   1.00
H1       0.42958    0.35412    0.76401   1.00
H1       0.47709    0.41836    0.56479   1.00
C5       0.48985    0.41921    0.64272   1.00
H1       0.42948    0.35413    0.69191   1.00
H2       0.51196    0.43145    0.62244   1.00
H2       0.48823    0.43980    0.66769   1.00
H2       0.40275    0.51258    0.70756   1.00
H2       0.41760    0.49227    0.66231   1.00
N1       0.50249    0.38079    0.65643   1.00
C6       0.51200    0.35016    0.63427   1.00
C6       0.50779    0.36999    0.69346   1.00
C6       0.52302    0.31922    0.65741   1.00
C6       0.52035    0.33184    0.69505   1.00
H3       0.51071    0.35003    0.60303   1.00
H3       0.50256    0.38858    0.71800   1.00
H3       0.53202    0.29068    0.64787   1.00
H3       0.52681    0.31508    0.72075   1.00
N1       0.35699    0.48888    0.67357   1.00
C6       0.34511    0.49084    0.63654   1.00
C6       0.32491    0.48914    0.69573   1.00
C6       0.30496    0.49185    0.63495   1.00
C6       0.29211    0.49076    0.67259   1.00
H3       0.36442    0.49120    0.61200   1.00
H3       0.32516    0.48788    0.72697   1.00
H3       0.28705    0.49320    0.60925   1.00
H3       0.26218    0.49114    0.68213   1.00
C4       0.41484    0.91488    0.64415   1.00
C4       0.41516    0.91512    0.68585   1.00
C3a      0.40632    0.88034    0.62246   1.00
C3       0.38010    0.91729    0.70732   1.00
C3       0.42288    0.94908    0.62268   1.00
C3a      0.45069    0.91330    0.70754   1.00
C2       0.41495    0.91506    0.55988   1.00
C2       0.41495    0.91507    0.77012   1.00
C3       0.40659    0.88096    0.58095   1.00
C3       0.38004    0.91715    0.74863   1.00
C3       0.42304    0.94909    0.58137   1.00
C3       0.45002    0.91323    0.74905   1.00
C5       0.39742    0.84213    0.64272   1.00
H1       0.35254    0.91871    0.69191   1.00
H1       0.40029    0.85459    0.56479   1.00
H1       0.35250    0.91863    0.76401   1.00
H1       0.42958    0.97588    0.56599   1.00
H1       0.47709    0.91164    0.76521   1.00
C5       0.48985    0.91079    0.68728   1.00
H1       0.42948    0.97587    0.63809   1.00
H2       0.51196    0.89855    0.70756   1.00
H2       0.48823    0.89020    0.66231   1.00
H2       0.40275    0.81742    0.62244   1.00
H2       0.41760    0.83773    0.66769   1.00
N1       0.50249    0.94921    0.67357   1.00
C6       0.51200    0.97984    0.69573   1.00
C6       0.50779    0.96001    0.63654   1.00
C6       0.52302    1.01078    0.67259   1.00
C6       0.52035    0.99816    0.63495   1.00
H3       0.51071    0.97997    0.72697   1.00
H3       0.50256    0.94142    0.61200   1.00
H3       0.53202    1.03932    0.68213   1.00
H3       0.52681    1.01492    0.60925   1.00
N1       0.35699    0.84112    0.65643   1.00
C6       0.34511    0.83916    0.69346   1.00
C6       0.32491    0.84086    0.63427   1.00
C6       0.30496    0.83815    0.69505   1.00
C6       0.29211    0.83924    0.65741   1.00
H3       0.36442    0.83880    0.71800   1.00
H3       0.32516    0.84212    0.60303   1.00
H3       0.28705    0.83680    0.72075   1.00
H3       0.26218    0.83886    0.64787   1.00
C4       0.41488    1.14415    0.41484   1.00
C4       0.41512    1.18585    0.41516   1.00
C3a      0.38034    1.12246    0.40632   1.00
C3       0.41729    1.20732    0.38010   1.00
C3       0.44908    1.12268    0.42288   1.00
C3a      0.41330    1.20754    0.45069   1.00
C2       0.41506    1.05988    0.41495   1.00
C2       0.41507    1.27012    0.41495   1.00
C3       0.38096    1.08095    0.40659   1.00
C3       0.41715    1.24863    0.38004   1.00
C3       0.44909    1.08137    0.42304   1.00
C3       0.41323    1.24905    0.45002   1.00
C5       0.34213    1.14272    0.39742   1.00
H1       0.41871    1.19191    0.35254   1.00
H1       0.35459    1.06479    0.40029   1.00
H1       0.41863    1.26401    0.35250   1.00
H1       0.47588    1.06599    0.42958   1.00
H1       0.41164    1.26521    0.47709   1.00
C5       0.41079    1.18728    0.48985   1.00
H1       0.47587    1.13809    0.42948   1.00
H2       0.39855    1.20756    0.51196   1.00
H2       0.39020    1.16231    0.48823   1.00
H2       0.31742    1.12244    0.40275   1.00
H2       0.33773    1.16769    0.41760   1.00
N1       0.44921    1.17357    0.50249   1.00
C6       0.47984    1.19573    0.51200   1.00
C6       0.46001    1.13654    0.50779   1.00
C6       0.51078    1.17259    0.52302   1.00
C6       0.49816    1.13495    0.52035   1.00
H3       0.47997    1.22697    0.51071   1.00
H3       0.44142    1.11200    0.50256   1.00
H3       0.53932    1.18213    0.53202   1.00
H3       0.51492    1.10925    0.52681   1.00
N1       0.34112    1.15643    0.35699   1.00
C6       0.33916    1.19346    0.34511   1.00
C6       0.34086    1.13427    0.32491   1.00
C6       0.33815    1.19505    0.30496   1.00
C6       0.33924    1.15741    0.29211   1.00
H3       0.33880    1.21800    0.36442   1.00
H3       0.34212    1.10303    0.32516   1.00
H3       0.33680    1.22075    0.28705   1.00
H3       0.33886    1.14787    0.26218   1.00
C4       0.18585    0.91484    0.41512   1.00
C4       0.14415    0.91516    0.41488   1.00
C3a      0.20754    0.90632    0.44966   1.00
C3       0.12268    0.88010    0.41271   1.00
C3       0.20732    0.92288    0.38092   1.00
C3a      0.12246    0.95069    0.41670   1.00
C2       0.27012    0.91495    0.41494   1.00
C2       0.05988    0.91495    0.41493   1.00
C3       0.24905    0.90659    0.44904   1.00
C3       0.08137    0.88004    0.41285   1.00
C3       0.24863    0.92304    0.38091   1.00
C3       0.08095    0.95002    0.41677   1.00
C5       0.18728    0.89742    0.48787   1.00
H1       0.13809    0.85254    0.41129   1.00
H1       0.26521    0.90029    0.47541   1.00
H1       0.06599    0.85250    0.41137   1.00
H1       0.26401    0.92958    0.35412   1.00
H1       0.06479    0.97709    0.41836   1.00
C5       0.14272    0.98985    0.41921   1.00
H1       0.19191    0.92948    0.35413   1.00
H2       0.12244    1.01196    0.43145   1.00
H2       0.16769    0.98823    0.43980   1.00
H2       0.20756    0.90275    0.51258   1.00
H2       0.16231    0.91760    0.49227   1.00
N1       0.15643    1.00249    0.38079   1.00
C6       0.13427    1.01200    0.35016   1.00
C6       0.19346    1.00779    0.36999   1.00
C6       0.15741    1.02302    0.31922   1.00
C6       0.19505    1.02035    0.33184   1.00
H3       0.10303    1.01071    0.35003   1.00
H3       0.21800    1.00256    0.38858   1.00
H3       0.14787    1.03202    0.29068   1.00
H3       0.22075    1.02681    0.31508   1.00
N1       0.17357    0.85699    0.48888   1.00
C6       0.13654    0.84511    0.49084   1.00
C6       0.19573    0.82491    0.48914   1.00
C6       0.13495    0.80496    0.49185   1.00
C6       0.17259    0.79211    0.49076   1.00
H3       0.11200    0.86442    0.49120   1.00
H3       0.22697    0.82516    0.48788   1.00
H3       0.10925    0.78705    0.49320   1.00
H3       0.18213    0.76218    0.49114   1.00
C4       0.64415    0.91484    0.41488   1.00
C4       0.68585    0.91516    0.41512   1.00
C3a      0.62246    0.90632    0.38034   1.00
C3       0.70732    0.88010    0.41729   1.00
C3       0.62268    0.92288    0.44908   1.00
C3a      0.70754    0.95069    0.41330   1.00
C2       0.55988    0.91495    0.41506   1.00
C2       0.77012    0.91495    0.41507   1.00
C3       0.58095    0.90659    0.38096   1.00
C3       0.74863    0.88004    0.41715   1.00
C3       0.58137    0.92304    0.44909   1.00
C3       0.74905    0.95002    0.41323   1.00
C5       0.64272    0.89742    0.34213   1.00
H1       0.69191    0.85254    0.41871   1.00
H1       0.56479    0.90029    0.35459   1.00
H1       0.76401    0.85250    0.41863   1.00
H1       0.56599    0.92958    0.47588   1.00
H1       0.76521    0.97709    0.41164   1.00
C5       0.68728    0.98985    0.41079   1.00
H1       0.63809    0.92948    0.47587   1.00
H2       0.70756    1.01196    0.39855   1.00
H2       0.66231    0.98823    0.39020   1.00
H2       0.62244    0.90275    0.31742   1.00
H2       0.66769    0.91760    0.33773   1.00
N1       0.67357    1.00249    0.44921   1.00
C6       0.69573    1.01200    0.47984   1.00
C6       0.63654    1.00779    0.46001   1.00
C6       0.67259    1.02302    0.51078   1.00
C6       0.63495    1.02035    0.49816   1.00
H3       0.72697    1.01071    0.47997   1.00
H3       0.61200    1.00256    0.44142   1.00
H3       0.68213    1.03202    0.53932   1.00
H3       0.60925    1.02681    0.51492   1.00
N1       0.65643    0.85699    0.34112   1.00
C6       0.69346    0.84511    0.33916   1.00
C6       0.63427    0.82491    0.34086   1.00
C6       0.69505    0.80496    0.33815   1.00
C6       0.65741    0.79211    0.33924   1.00
H3       0.71800    0.86442    0.33880   1.00
H3       0.60303    0.82516    0.34212   1.00
H3       0.72075    0.78705    0.33680   1.00
H3       0.64787    0.76218    0.33886   1.00
C4       0.41512    0.68585    0.41484   1.00
C4       0.41488    0.64415    0.41516   1.00
C3a      0.44966    0.70754    0.40632   1.00
C3       0.41271    0.62268    0.38010   1.00
C3       0.38092    0.70732    0.42288   1.00
C3a      0.41670    0.62246    0.45069   1.00
C2       0.41494    0.77012    0.41495   1.00
C2       0.41493    0.55988    0.41495   1.00
C3       0.44904    0.74905    0.40659   1.00
C3       0.41285    0.58137    0.38004   1.00
C3       0.38091    0.74863    0.42304   1.00
C3       0.41677    0.58095    0.45002   1.00
C5       0.48787    0.68728    0.39742   1.00
H1       0.41129    0.63809    0.35254   1.00
H1       0.47541    0.76521    0.40029   1.00
H1       0.41137    0.56599    0.35250   1.00
H1       0.35412    0.76401    0.42958   1.00
H1       0.41836    0.56479    0.47709   1.00
C5       0.41921    0.64272    0.48985   1.00
H1       0.35413    0.69191    0.42948   1.00
H2       0.43145    0.62244    0.51196   1.00
H2       0.43980    0.66769    0.48823   1.00
H2       0.51258    0.70756    0.40275   1.00
H2       0.49227    0.66231    0.41760   1.00
N1       0.38079    0.65643    0.50249   1.00
C6       0.35016    0.63427    0.51200   1.00
C6       0.36999    0.69346    0.50779   1.00
C6       0.31922    0.65741    0.52302   1.00
C6       0.33184    0.69505    0.52035   1.00
H3       0.35003    0.60303    0.51071   1.00
H3       0.38858    0.71800    0.50256   1.00
H3       0.29068    0.64787    0.53202   1.00
H3       0.31508    0.72075    0.52681   1.00
N1       0.48888    0.67357    0.35699   1.00
C6       0.49084    0.63654    0.34511   1.00
C6       0.48914    0.69573    0.32491   1.00
C6       0.49185    0.63495    0.30496   1.00
C6       0.49076    0.67259    0.29211   1.00
H3       0.49120    0.61200    0.36442   1.00
H3       0.48788    0.72697    0.32516   1.00
H3       0.49320    0.60925    0.28705   1.00
H3       0.49114    0.68213    0.26218   1.00
C4       0.41484    0.91512    0.18585   1.00
C4       0.41516    0.91488    0.14415   1.00
C3a      0.40632    0.94966    0.20754   1.00
C3       0.38010    0.91271    0.12268   1.00
C3       0.42288    0.88092    0.20732   1.00
C3a      0.45069    0.91670    0.12246   1.00
C2       0.41495    0.91494    0.27012   1.00
C2       0.41495    0.91493    0.05988   1.00
C3       0.40659    0.94904    0.24905   1.00
C3       0.38004    0.91285    0.08137   1.00
C3       0.42304    0.88091    0.24863   1.00
C3       0.45002    0.91677    0.08095   1.00
C5       0.39742    0.98787    0.18728   1.00
H1       0.35254    0.91129    0.13809   1.00
H1       0.40029    0.97541    0.26521   1.00
H1       0.35250    0.91137    0.06599   1.00
H1       0.42958    0.85412    0.26401   1.00
H1       0.47709    0.91836    0.06479   1.00
C5       0.48985    0.91921    0.14272   1.00
H1       0.42948    0.85413    0.19191   1.00
H2       0.51196    0.93145    0.12244   1.00
H2       0.48823    0.93980    0.16769   1.00
H2       0.40275    1.01258    0.20756   1.00
H2       0.41760    0.99227    0.16231   1.00
N1       0.50249    0.88079    0.15643   1.00
C6       0.51200    0.85016    0.13427   1.00
C6       0.50779    0.86999    0.19346   1.00
C6       0.52302    0.81922    0.15741   1.00
C6       0.52035    0.83184    0.19505   1.00
H3       0.51071    0.85003    0.10303   1.00
H3       0.50256    0.88858    0.21800   1.00
H3       0.53202    0.79068    0.14787   1.00
H3       0.52681    0.81508    0.22075   1.00
N1       0.35699    0.98888    0.17357   1.00
C6       0.34511    0.99084    0.13654   1.00
C6       0.32491    0.98914    0.19573   1.00
C6       0.30496    0.99185    0.13495   1.00
C6       0.29211    0.99076    0.17259   1.00
H3       0.36442    0.99120    0.11200   1.00
H3       0.32516    0.98788    0.22697   1.00
H3       0.28705    0.99320    0.10925   1.00
H3       0.26218    0.99114    0.18213   1.00
C4       0.91484    0.41488    0.64415   1.00
C4       0.91516    0.41512    0.68585   1.00
C3a      0.90632    0.38034    0.62246   1.00
C3       0.88010    0.41729    0.70732   1.00
C3       0.92288    0.44908    0.62268   1.00
C3a      0.95069    0.41330    0.70754   1.00
C2       0.91495    0.41506    0.55988   1.00
C2       0.91495    0.41507    0.77012   1.00
C3       0.90659    0.38096    0.58095   1.00
C3       0.88004    0.41715    0.74863   1.00
C3       0.92304    0.44909    0.58137   1.00
C3       0.95002    0.41323    0.74905   1.00
C5       0.89742    0.34213    0.64272   1.00
H1       0.85254    0.41871    0.69191   1.00
H1       0.90029    0.35459    0.56479   1.00
H1       0.85250    0.41863    0.76401   1.00
H1       0.92958    0.47588    0.56599   1.00
H1       0.97709    0.41164    0.76521   1.00
C5       0.98985    0.41079    0.68728   1.00
H1       0.92948    0.47587    0.63809   1.00
H2       1.01196    0.39855    0.70756   1.00
H2       0.98823    0.39020    0.66231   1.00
H2       0.90275    0.31742    0.62244   1.00
H2       0.91760    0.33773    0.66769   1.00
N1       1.00249    0.44921    0.67357   1.00
C6       1.01200    0.47984    0.69573   1.00
C6       1.00779    0.46001    0.63654   1.00
C6       1.02302    0.51078    0.67259   1.00
C6       1.02035    0.49816    0.63495   1.00
H3       1.01071    0.47997    0.72697   1.00
H3       1.00256    0.44142    0.61200   1.00
H3       1.03202    0.53932    0.68213   1.00
H3       1.02681    0.51492    0.60925   1.00
N1       0.85699    0.34112    0.65643   1.00
C6       0.84511    0.33916    0.69346   1.00
C6       0.82491    0.34086    0.63427   1.00
C6       0.80496    0.33815    0.69505   1.00
C6       0.79211    0.33924    0.65741   1.00
H3       0.86442    0.33880    0.71800   1.00
H3       0.82516    0.34212    0.60303   1.00
H3       0.78705    0.33680    0.72075   1.00
H3       0.76218    0.33886    0.64787   1.00
C4       0.91488    0.64415    0.41484   1.00
C4       0.91512    0.68585    0.41516   1.00
C3a      0.88034    0.62246    0.40632   1.00
C3       0.91729    0.70732    0.38010   1.00
C3       0.94908    0.62268    0.42288   1.00
C3a      0.91330    0.70754    0.45069   1.00
C2       0.91506    0.55988    0.41495   1.00
C2       0.91507    0.77012    0.41495   1.00
C3       0.88096    0.58095    0.40659   1.00
C3       0.91715    0.74863    0.38004   1.00
C3       0.94909    0.58137    0.42304   1.00
C3       0.91323    0.74905    0.45002   1.00
C5       0.84213    0.64272    0.39742   1.00
H1       0.91871    0.69191    0.35254   1.00
H1       0.85459    0.56479    0.40029   1.00
H1       0.91863    0.76401    0.35250   1.00
H1       0.97588    0.56599    0.42958   1.00
H1       0.91164    0.76521    0.47709   1.00
C5       0.91079    0.68728    0.48985   1.00
H1       0.97587    0.63809    0.42948   1.00
H2       0.89855    0.70756    0.51196   1.00
H2       0.89020    0.66231    0.48823   1.00
H2       0.81742    0.62244    0.40275   1.00
H2       0.83773    0.66769    0.41760   1.00
N1       0.94921    0.67357    0.50249   1.00
C6       0.97984    0.69573    0.51200   1.00
C6       0.96001    0.63654    0.50779   1.00
C6       1.01078    0.67259    0.52302   1.00
C6       0.99816    0.63495    0.52035   1.00
H3       0.97997    0.72697    0.51071   1.00
H3       0.94142    0.61200    0.50256   1.00
H3       1.03932    0.68213    0.53202   1.00
H3       1.01492    0.60925    0.52681   1.00
N1       0.84112    0.65643    0.35699   1.00
C6       0.83916    0.69346    0.34511   1.00
C6       0.84086    0.63427    0.32491   1.00
C6       0.83815    0.69505    0.30496   1.00
C6       0.83924    0.65741    0.29211   1.00
H3       0.83880    0.71800    0.36442   1.00
H3       0.84212    0.60303    0.32516   1.00
H3       0.83680    0.72075    0.28705   1.00
H3       0.83886    0.64787    0.26218   1.00
C4       0.68585    0.41484    0.41512   1.00
C4       0.64415    0.41516    0.41488   1.00
C3a      0.70754    0.40632    0.44966   1.00
C3       0.62268    0.38010    0.41271   1.00
C3       0.70732    0.42288    0.38092   1.00
C3a      0.62246    0.45069    0.41670   1.00
C2       0.77012    0.41495    0.41494   1.00
C2       0.55988    0.41495    0.41493   1.00
C3       0.74905    0.40659    0.44904   1.00
C3       0.58137    0.38004    0.41285   1.00
C3       0.74863    0.42304    0.38091   1.00
C3       0.58095    0.45002    0.41677   1.00
C5       0.68728    0.39742    0.48787   1.00
H1       0.63809    0.35254    0.41129   1.00
H1       0.76521    0.40029    0.47541   1.00
H1       0.56599    0.35250    0.41137   1.00
H1       0.76401    0.42958    0.35412   1.00
H1       0.56479    0.47709    0.41836   1.00
C5       0.64272    0.48985    0.41921   1.00
H1       0.69191    0.42948    0.35413   1.00
H2       0.62244    0.51196    0.43145   1.00
H2       0.66769    0.48823    0.43980   1.00
H2       0.70756    0.40275    0.51258   1.00
H2       0.66231    0.41760    0.49227   1.00
N1       0.65643    0.50249    0.38079   1.00
C6       0.63427    0.51200    0.35016   1.00
C6       0.69346    0.50779    0.36999   1.00
C6       0.65741    0.52302    0.31922   1.00
C6       0.69505    0.52035    0.33184   1.00
H3       0.60303    0.51071    0.35003   1.00
H3       0.71800    0.50256    0.38858   1.00
H3       0.64787    0.53202    0.29068   1.00
H3       0.72075    0.52681    0.31508   1.00
N1       0.67357    0.35699    0.48888   1.00
C6       0.63654    0.34511    0.49084   1.00
C6       0.69573    0.32491    0.48914   1.00
C6       0.63495    0.30496    0.49185   1.00
C6       0.67259    0.29211    0.49076   1.00
H3       0.61200    0.36442    0.49120   1.00
H3       0.72697    0.32516    0.48788   1.00
H3       0.60925    0.28705    0.49320   1.00
H3       0.68213    0.26218    0.49114   1.00
C4       1.14415    0.41484    0.41488   1.00
C4       1.18585    0.41516    0.41512   1.00
C3a      1.12246    0.40632    0.38034   1.00
C3       1.20732    0.38010    0.41729   1.00
C3       1.12268    0.42288    0.44908   1.00
C3a      1.20754    0.45069    0.41330   1.00
C2       1.05988    0.41495    0.41506   1.00
C2       1.27012    0.41495    0.41507   1.00
C3       1.08095    0.40659    0.38096   1.00
C3       1.24863    0.38004    0.41715   1.00
C3       1.08137    0.42304    0.44909   1.00
C3       1.24905    0.45002    0.41323   1.00
C5       1.14272    0.39742    0.34213   1.00
H1       1.19191    0.35254    0.41871   1.00
H1       1.06479    0.40029    0.35459   1.00
H1       1.26401    0.35250    0.41863   1.00
H1       1.06599    0.42958    0.47588   1.00
H1       1.26521    0.47709    0.41164   1.00
C5       1.18728    0.48985    0.41079   1.00
H1       1.13809    0.42948    0.47587   1.00
H2       1.20756    0.51196    0.39855   1.00
H2       1.16231    0.48823    0.39020   1.00
H2       1.12244    0.40275    0.31742   1.00
H2       1.16769    0.41760    0.33773   1.00
N1       1.17357    0.50249    0.44921   1.00
C6       1.19573    0.51200    0.47984   1.00
C6       1.13654    0.50779    0.46001   1.00
C6       1.17259    0.52302    0.51078   1.00
C6       1.13495    0.52035    0.49816   1.00
H3       1.22697    0.51071    0.47997   1.00
H3       1.11200    0.50256    0.44142   1.00
H3       1.18213    0.53202    0.53932   1.00
H3       1.10925    0.52681    0.51492   1.00
N1       1.15643    0.35699    0.34112   1.00
C6       1.19346    0.34511    0.33916   1.00
C6       1.13427    0.32491    0.34086   1.00
C6       1.19505    0.30496    0.33815   1.00
C6       1.15741    0.29211    0.33924   1.00
H3       1.21800    0.36442    0.33880   1.00
H3       1.10303    0.32516    0.34212   1.00
H3       1.22075    0.28705    0.33680   1.00
H3       1.14787    0.26218    0.33886   1.00
C4       0.91512    0.18585    0.41484   1.00
C4       0.91488    0.14415    0.41516   1.00
C3a      0.94966    0.20754    0.40632   1.00
C3       0.91271    0.12268    0.38010   1.00
C3       0.88092    0.20732    0.42288   1.00
C3a      0.91670    0.12246    0.45069   1.00
C2       0.91494    0.27012    0.41495   1.00
C2       0.91493    0.05988    0.41495   1.00
C3       0.94904    0.24905    0.40659   1.00
C3       0.91285    0.08137    0.38004   1.00
C3       0.88091    0.24863    0.42304   1.00
C3       0.91677    0.08095    0.45002   1.00
C5       0.98787    0.18728    0.39742   1.00
H1       0.91129    0.13809    0.35254   1.00
H1       0.97541    0.26521    0.40029   1.00
H1       0.91137    0.06599    0.35250   1.00
H1       0.85412    0.26401    0.42958   1.00
H1       0.91836    0.06479    0.47709   1.00
C5       0.91921    0.14272    0.48985   1.00
H1       0.85413    0.19191    0.42948   1.00
H2       0.93145    0.12244    0.51196   1.00
H2       0.93980    0.16769    0.48823   1.00
H2       1.01258    0.20756    0.40275   1.00
H2       0.99227    0.16231    0.41760   1.00
N1       0.88079    0.15643    0.50249   1.00
C6       0.85016    0.13427    0.51200   1.00
C6       0.86999    0.19346    0.50779   1.00
C6       0.81922    0.15741    0.52302   1.00
C6       0.83184    0.19505    0.52035   1.00
H3       0.85003    0.10303    0.51071   1.00
H3       0.88858    0.21800    0.50256   1.00
H3       0.79068    0.14787    0.53202   1.00
H3       0.81508    0.22075    0.52681   1.00
N1       0.98888    0.17357    0.35699   1.00
C6       0.99084    0.13654    0.34511   1.00
C6       0.98914    0.19573    0.32491   1.00
C6       0.99185    0.13495    0.30496   1.00
C6       0.99076    0.17259    0.29211   1.00
H3       0.99120    0.11200    0.36442   1.00
H3       0.98788    0.22697    0.32516   1.00
H3       0.99320    0.10925    0.28705   1.00
H3       0.99114    0.18213    0.26218   1.00
C4       0.91484    0.41512    0.18585   1.00
C4       0.91516    0.41488    0.14415   1.00
C3a      0.90632    0.44966    0.20754   1.00
C3       0.88010    0.41271    0.12268   1.00
C3       0.92288    0.38092    0.20732   1.00
C3a      0.95069    0.41670    0.12246   1.00
C2       0.91495    0.41494    0.27012   1.00
C2       0.91495    0.41493    0.05988   1.00
C3       0.90659    0.44904    0.24905   1.00
C3       0.88004    0.41285    0.08137   1.00
C3       0.92304    0.38091    0.24863   1.00
C3       0.95002    0.41677    0.08095   1.00
C5       0.89742    0.48787    0.18728   1.00
H1       0.85254    0.41129    0.13809   1.00
H1       0.90029    0.47541    0.26521   1.00
H1       0.85250    0.41137    0.06599   1.00
H1       0.92958    0.35412    0.26401   1.00
H1       0.97709    0.41836    0.06479   1.00
C5       0.98985    0.41921    0.14272   1.00
H1       0.92948    0.35413    0.19191   1.00
H2       1.01196    0.43145    0.12244   1.00
H2       0.98823    0.43980    0.16769   1.00
H2       0.90275    0.51258    0.20756   1.00
H2       0.91760    0.49227    0.16231   1.00
N1       1.00249    0.38079    0.15643   1.00
C6       1.01200    0.35016    0.13427   1.00
C6       1.00779    0.36999    0.19346   1.00
C6       1.02302    0.31922    0.15741   1.00
C6       1.02035    0.33184    0.19505   1.00
H3       1.01071    0.35003    0.10303   1.00
H3       1.00256    0.38858    0.21800   1.00
H3       1.03202    0.29068    0.14787   1.00
H3       1.02681    0.31508    0.22075   1.00
N1       0.85699    0.48888    0.17357   1.00
C6       0.84511    0.49084    0.13654   1.00
C6       0.82491    0.48914    0.19573   1.00
C6       0.80496    0.49185    0.13495   1.00
C6       0.79211    0.49076    0.17259   1.00
H3       0.86442    0.49120    0.11200   1.00
H3       0.82516    0.48788    0.22697   1.00
H3       0.78705    0.49320    0.10925   1.00
H3       0.76218    0.49114    0.18213   1.00
