data_IRMOF10_SG202_interpen_Ligand1cp_label_k.

_audit_creation_method             'generated by an auxiliary program of Tobunporous'

_symmetry_space_group_name_H-M     'P 1'
_symmetry_Int_Tables_number        1
_symmetry_cell_setting             triclinic

_cell_length_a                    34.2800
_cell_length_b                    34.2800
_cell_length_c                    34.2800
_cell_angle_alpha                 90.0000
_cell_angle_beta                  90.0000
_cell_angle_gamma                 90.0000

loop_
_atom_site_label
_atom_site_fract_x
_atom_site_fract_y
_atom_site_fract_z
_atom_site_occupancy
O1       0.75000    0.75000    0.75000   1.00
Zn1      0.71720    0.78280    0.78280   1.00
Zn1      0.78280    0.71720    0.78280   1.00
Zn1      0.78280    0.78280    0.71720   1.00
Zn1      0.71720    0.71720    0.71720   1.00
O2       0.72650    0.77350    0.83820   1.00
O2       0.72650    0.83820    0.77350   1.00
O2       0.66180    0.77350    0.77350   1.00
O2       0.77350    0.72650    0.83820   1.00
O2       0.83820    0.72650    0.77350   1.00
O2       0.77350    0.66180    0.77350   1.00
O2       0.77350    0.83820    0.72650   1.00
O2       0.83820    0.77350    0.72650   1.00
O2       0.77350    0.77350    0.66180   1.00
O2       0.66180    0.72650    0.72650   1.00
O2       0.72650    0.66180    0.72650   1.00
O2       0.72650    0.72650    0.66180   1.00
C1       0.75000    0.75000    0.85520   1.00
C1       0.75000    0.85520    0.75000   1.00
C1       0.64480    0.75000    0.75000   1.00
C1       0.85520    0.75000    0.75000   1.00
C1       0.75000    0.64480    0.75000   1.00
C1       0.75000    0.75000    0.64480   1.00
O1       0.25000    0.25000    0.75000   1.00
Zn1      0.21720    0.28280    0.78280   1.00
Zn1      0.28280    0.21720    0.78280   1.00
Zn1      0.28280    0.28280    0.71720   1.00
Zn1      0.21720    0.21720    0.71720   1.00
O2       0.22650    0.27350    0.83820   1.00
O2       0.22650    0.33820    0.77350   1.00
O2       0.16180    0.27350    0.77350   1.00
O2       0.27350    0.22650    0.83820   1.00
O2       0.33820    0.22650    0.77350   1.00
O2       0.27350    0.16180    0.77350   1.00
O2       0.27350    0.33820    0.72650   1.00
O2       0.33820    0.27350    0.72650   1.00
O2       0.27350    0.27350    0.66180   1.00
O2       0.16180    0.22650    0.72650   1.00
O2       0.22650    0.16180    0.72650   1.00
O2       0.22650    0.22650    0.66180   1.00
C1       0.25000    0.25000    0.85520   1.00
C1       0.25000    0.35520    0.75000   1.00
C1       0.14480    0.25000    0.75000   1.00
C1       0.35520    0.25000    0.75000   1.00
C1       0.25000    0.14480    0.75000   1.00
C1       0.25000    0.25000    0.64480   1.00
O1       0.25000    0.75000    0.25000   1.00
Zn1      0.21720    0.78280    0.28280   1.00
Zn1      0.28280    0.71720    0.28280   1.00
Zn1      0.28280    0.78280    0.21720   1.00
Zn1      0.21720    0.71720    0.21720   1.00
O2       0.22650    0.77350    0.33820   1.00
O2       0.22650    0.83820    0.27350   1.00
O2       0.16180    0.77350    0.27350   1.00
O2       0.27350    0.72650    0.33820   1.00
O2       0.33820    0.72650    0.27350   1.00
O2       0.27350    0.66180    0.27350   1.00
O2       0.27350    0.83820    0.22650   1.00
O2       0.33820    0.77350    0.22650   1.00
O2       0.27350    0.77350    0.16180   1.00
O2       0.16180    0.72650    0.22650   1.00
O2       0.22650    0.66180    0.22650   1.00
O2       0.22650    0.72650    0.16180   1.00
C1       0.25000    0.75000    0.35520   1.00
C1       0.25000    0.85520    0.25000   1.00
C1       0.14480    0.75000    0.25000   1.00
C1       0.35520    0.75000    0.25000   1.00
C1       0.25000    0.64480    0.25000   1.00
C1       0.25000    0.75000    0.14480   1.00
O1       0.75000    0.25000    0.25000   1.00
Zn1      0.71720    0.28280    0.28280   1.00
Zn1      0.78280    0.21720    0.28280   1.00
Zn1      0.78280    0.28280    0.21720   1.00
Zn1      0.71720    0.21720    0.21720   1.00
O2       0.72650    0.27350    0.33820   1.00
O2       0.72650    0.33820    0.27350   1.00
O2       0.66180    0.27350    0.27350   1.00
O2       0.77350    0.22650    0.33820   1.00
O2       0.83820    0.22650    0.27350   1.00
O2       0.77350    0.16180    0.27350   1.00
O2       0.77350    0.33820    0.22650   1.00
O2       0.83820    0.27350    0.22650   1.00
O2       0.77350    0.27350    0.16180   1.00
O2       0.66180    0.22650    0.22650   1.00
O2       0.72650    0.16180    0.22650   1.00
O2       0.72650    0.22650    0.16180   1.00
C1       0.75000    0.25000    0.35520   1.00
C1       0.75000    0.35520    0.25000   1.00
C1       0.64480    0.25000    0.25000   1.00
C1       0.85520    0.25000    0.25000   1.00
C1       0.75000    0.14480    0.25000   1.00
C1       0.75000    0.25000    0.14480   1.00
O1       0.25000    0.25000    0.25000   1.00
Zn1      0.28280    0.21720    0.21720   1.00
Zn1      0.21720    0.28280    0.21720   1.00
Zn1      0.21720    0.21720    0.28280   1.00
Zn1      0.28280    0.28280    0.28280   1.00
O2       0.27350    0.22650    0.16180   1.00
O2       0.27350    0.16180    0.22650   1.00
O2       0.33820    0.22650    0.22650   1.00
O2       0.22650    0.27350    0.16180   1.00
O2       0.16180    0.27350    0.22650   1.00
O2       0.22650    0.33820    0.22650   1.00
O2       0.22650    0.16180    0.27350   1.00
O2       0.16180    0.22650    0.27350   1.00
O2       0.22650    0.22650    0.33820   1.00
O2       0.33820    0.27350    0.27350   1.00
O2       0.27350    0.33820    0.27350   1.00
O2       0.27350    0.27350    0.33820   1.00
C1       0.25000    0.25000    0.14480   1.00
C1       0.25000    0.14480    0.25000   1.00
C1       0.35520    0.25000    0.25000   1.00
C1       0.14480    0.25000    0.25000   1.00
C1       0.25000    0.35520    0.25000   1.00
C1       0.25000    0.25000    0.35520   1.00
O1       0.75000    0.75000    0.25000   1.00
Zn1      0.78280    0.71720    0.21720   1.00
Zn1      0.71720    0.78280    0.21720   1.00
Zn1      0.71720    0.71720    0.28280   1.00
Zn1      0.78280    0.78280    0.28280   1.00
O2       0.77350    0.72650    0.16180   1.00
O2       0.77350    0.66180    0.22650   1.00
O2       0.83820    0.72650    0.22650   1.00
O2       0.72650    0.77350    0.16180   1.00
O2       0.66180    0.77350    0.22650   1.00
O2       0.72650    0.83820    0.22650   1.00
O2       0.72650    0.66180    0.27350   1.00
O2       0.66180    0.72650    0.27350   1.00
O2       0.72650    0.72650    0.33820   1.00
O2       0.83820    0.77350    0.27350   1.00
O2       0.77350    0.83820    0.27350   1.00
O2       0.77350    0.77350    0.33820   1.00
C1       0.75000    0.75000    0.14480   1.00
C1       0.75000    0.64480    0.25000   1.00
C1       0.85520    0.75000    0.25000   1.00
C1       0.64480    0.75000    0.25000   1.00
C1       0.75000    0.85520    0.25000   1.00
C1       0.75000    0.75000    0.35520   1.00
O1       0.75000    0.25000    0.75000   1.00
Zn1      0.78280    0.21720    0.71720   1.00
Zn1      0.71720    0.28280    0.71720   1.00
Zn1      0.71720    0.21720    0.78280   1.00
Zn1      0.78280    0.28280    0.78280   1.00
O2       0.77350    0.22650    0.66180   1.00
O2       0.77350    0.16180    0.72650   1.00
O2       0.83820    0.22650    0.72650   1.00
O2       0.72650    0.27350    0.66180   1.00
O2       0.66180    0.27350    0.72650   1.00
O2       0.72650    0.33820    0.72650   1.00
O2       0.72650    0.16180    0.77350   1.00
O2       0.66180    0.22650    0.77350   1.00
O2       0.72650    0.22650    0.83820   1.00
O2       0.83820    0.27350    0.77350   1.00
O2       0.77350    0.33820    0.77350   1.00
O2       0.77350    0.27350    0.83820   1.00
C1       0.75000    0.25000    0.64480   1.00
C1       0.75000    0.14480    0.75000   1.00
C1       0.85520    0.25000    0.75000   1.00
C1       0.64480    0.25000    0.75000   1.00
C1       0.75000    0.35520    0.75000   1.00
C1       0.75000    0.25000    0.85520   1.00
O1       0.25000    0.75000    0.75000   1.00
Zn1      0.28280    0.71720    0.71720   1.00
Zn1      0.21720    0.78280    0.71720   1.00
Zn1      0.21720    0.71720    0.78280   1.00
Zn1      0.28280    0.78280    0.78280   1.00
O2       0.27350    0.72650    0.66180   1.00
O2       0.27350    0.66180    0.72650   1.00
O2       0.33820    0.72650    0.72650   1.00
O2       0.22650    0.77350    0.66180   1.00
O2       0.16180    0.77350    0.72650   1.00
O2       0.22650    0.83820    0.72650   1.00
O2       0.22650    0.66180    0.77350   1.00
O2       0.16180    0.72650    0.77350   1.00
O2       0.22650    0.72650    0.83820   1.00
O2       0.33820    0.77350    0.77350   1.00
O2       0.27350    0.83820    0.77350   1.00
O2       0.27350    0.77350    0.83820   1.00
C1       0.25000    0.75000    0.64480   1.00
C1       0.25000    0.64480    0.75000   1.00
C1       0.35520    0.75000    0.75000   1.00
C1       0.14480    0.75000    0.75000   1.00
C1       0.25000    0.85520    0.75000   1.00
C1       0.25000    0.75000    0.85520   1.00
O1       0.91500    0.91500    0.91500   1.00
Zn1      0.88220    0.94780    0.94780   1.00
Zn1      0.94780    0.88220    0.94780   1.00
Zn1      0.94780    0.94780    0.88220   1.00
Zn1      0.88220    0.88220    0.88220   1.00
O2       0.89150    0.93850    1.00320   1.00
O2       0.89150    1.00320    0.93850   1.00
O2       0.82680    0.93850    0.93850   1.00
O2       0.93850    0.89150    1.00320   1.00
O2       1.00320    0.89150    0.93850   1.00
O2       0.93850    0.82680    0.93850   1.00
O2       0.93850    1.00320    0.89150   1.00
O2       1.00320    0.93850    0.89150   1.00
O2       0.93850    0.93850    0.82680   1.00
O2       0.82680    0.89150    0.89150   1.00
O2       0.89150    0.82680    0.89150   1.00
O2       0.89150    0.89150    0.82680   1.00
C1       0.91500    0.91500    1.02020   1.00
C1       0.91500    1.02020    0.91500   1.00
C1       0.80980    0.91500    0.91500   1.00
C1       1.02020    0.91500    0.91500   1.00
C1       0.91500    0.80980    0.91500   1.00
C1       0.91500    0.91500    0.80980   1.00
O1       0.41500    0.41500    0.91500   1.00
Zn1      0.38220    0.44780    0.94780   1.00
Zn1      0.44780    0.38220    0.94780   1.00
Zn1      0.44780    0.44780    0.88220   1.00
Zn1      0.38220    0.38220    0.88220   1.00
O2       0.39150    0.43850    1.00320   1.00
O2       0.39150    0.50320    0.93850   1.00
O2       0.32680    0.43850    0.93850   1.00
O2       0.43850    0.39150    1.00320   1.00
O2       0.50320    0.39150    0.93850   1.00
O2       0.43850    0.32680    0.93850   1.00
O2       0.43850    0.50320    0.89150   1.00
O2       0.50320    0.43850    0.89150   1.00
O2       0.43850    0.43850    0.82680   1.00
O2       0.32680    0.39150    0.89150   1.00
O2       0.39150    0.32680    0.89150   1.00
O2       0.39150    0.39150    0.82680   1.00
C1       0.41500    0.41500    1.02020   1.00
C1       0.41500    0.52020    0.91500   1.00
C1       0.30980    0.41500    0.91500   1.00
C1       0.52020    0.41500    0.91500   1.00
C1       0.41500    0.30980    0.91500   1.00
C1       0.41500    0.41500    0.80980   1.00
O1       0.41500    0.91500    0.41500   1.00
Zn1      0.38220    0.94780    0.44780   1.00
Zn1      0.44780    0.88220    0.44780   1.00
Zn1      0.44780    0.94780    0.38220   1.00
Zn1      0.38220    0.88220    0.38220   1.00
O2       0.39150    0.93850    0.50320   1.00
O2       0.39150    1.00320    0.43850   1.00
O2       0.32680    0.93850    0.43850   1.00
O2       0.43850    0.89150    0.50320   1.00
O2       0.50320    0.89150    0.43850   1.00
O2       0.43850    0.82680    0.43850   1.00
O2       0.43850    1.00320    0.39150   1.00
O2       0.50320    0.93850    0.39150   1.00
O2       0.43850    0.93850    0.32680   1.00
O2       0.32680    0.89150    0.39150   1.00
O2       0.39150    0.82680    0.39150   1.00
O2       0.39150    0.89150    0.32680   1.00
C1       0.41500    0.91500    0.52020   1.00
C1       0.41500    1.02020    0.41500   1.00
C1       0.30980    0.91500    0.41500   1.00
C1       0.52020    0.91500    0.41500   1.00
C1       0.41500    0.80980    0.41500   1.00
C1       0.41500    0.91500    0.30980   1.00
O1       0.91500    0.41500    0.41500   1.00
Zn1      0.88220    0.44780    0.44780   1.00
Zn1      0.94780    0.38220    0.44780   1.00
Zn1      0.94780    0.44780    0.38220   1.00
Zn1      0.88220    0.38220    0.38220   1.00
O2       0.89150    0.43850    0.50320   1.00
O2       0.89150    0.50320    0.43850   1.00
O2       0.82680    0.43850    0.43850   1.00
O2       0.93850    0.39150    0.50320   1.00
O2       1.00320    0.39150    0.43850   1.00
O2       0.93850    0.32680    0.43850   1.00
O2       0.93850    0.50320    0.39150   1.00
O2       1.00320    0.43850    0.39150   1.00
O2       0.93850    0.43850    0.32680   1.00
O2       0.82680    0.39150    0.39150   1.00
O2       0.89150    0.32680    0.39150   1.00
O2       0.89150    0.39150    0.32680   1.00
C1       0.91500    0.41500    0.52020   1.00
C1       0.91500    0.52020    0.41500   1.00
C1       0.80980    0.41500    0.41500   1.00
C1       1.02020    0.41500    0.41500   1.00
C1       0.91500    0.30980    0.41500   1.00
C1       0.91500    0.41500    0.30980   1.00
O1       0.41500    0.41500    0.41500   1.00
Zn1      0.44780    0.38220    0.38220   1.00
Zn1      0.38220    0.44780    0.38220   1.00
Zn1      0.38220    0.38220    0.44780   1.00
Zn1      0.44780    0.44780    0.44780   1.00
O2       0.43850    0.39150    0.32680   1.00
O2       0.43850    0.32680    0.39150   1.00
O2       0.50320    0.39150    0.39150   1.00
O2       0.39150    0.43850    0.32680   1.00
O2       0.32680    0.43850    0.39150   1.00
O2       0.39150    0.50320    0.39150   1.00
O2       0.39150    0.32680    0.43850   1.00
O2       0.32680    0.39150    0.43850   1.00
O2       0.39150    0.39150    0.50320   1.00
O2       0.50320    0.43850    0.43850   1.00
O2       0.43850    0.50320    0.43850   1.00
O2       0.43850    0.43850    0.50320   1.00
C1       0.41500    0.41500    0.30980   1.00
C1       0.41500    0.30980    0.41500   1.00
C1       0.52020    0.41500    0.41500   1.00
C1       0.30980    0.41500    0.41500   1.00
C1       0.41500    0.52020    0.41500   1.00
C1       0.41500    0.41500    0.52020   1.00
O1       0.91500    0.91500    0.41500   1.00
Zn1      0.94780    0.88220    0.38220   1.00
Zn1      0.88220    0.94780    0.38220   1.00
Zn1      0.88220    0.88220    0.44780   1.00
Zn1      0.94780    0.94780    0.44780   1.00
O2       0.93850    0.89150    0.32680   1.00
O2       0.93850    0.82680    0.39150   1.00
O2       1.00320    0.89150    0.39150   1.00
O2       0.89150    0.93850    0.32680   1.00
O2       0.82680    0.93850    0.39150   1.00
O2       0.89150    1.00320    0.39150   1.00
O2       0.89150    0.82680    0.43850   1.00
O2       0.82680    0.89150    0.43850   1.00
O2       0.89150    0.89150    0.50320   1.00
O2       1.00320    0.93850    0.43850   1.00
O2       0.93850    1.00320    0.43850   1.00
O2       0.93850    0.93850    0.50320   1.00
C1       0.91500    0.91500    0.30980   1.00
C1       0.91500    0.80980    0.41500   1.00
C1       1.02020    0.91500    0.41500   1.00
C1       0.80980    0.91500    0.41500   1.00
C1       0.91500    1.02020    0.41500   1.00
C1       0.91500    0.91500    0.52020   1.00
O1       0.91500    0.41500    0.91500   1.00
Zn1      0.94780    0.38220    0.88220   1.00
Zn1      0.88220    0.44780    0.88220   1.00
Zn1      0.88220    0.38220    0.94780   1.00
Zn1      0.94780    0.44780    0.94780   1.00
O2       0.93850    0.39150    0.82680   1.00
O2       0.93850    0.32680    0.89150   1.00
O2       1.00320    0.39150    0.89150   1.00
O2       0.89150    0.43850    0.82680   1.00
O2       0.82680    0.43850    0.89150   1.00
O2       0.89150    0.50320    0.89150   1.00
O2       0.89150    0.32680    0.93850   1.00
O2       0.82680    0.39150    0.93850   1.00
O2       0.89150    0.39150    1.00320   1.00
O2       1.00320    0.43850    0.93850   1.00
O2       0.93850    0.50320    0.93850   1.00
O2       0.93850    0.43850    1.00320   1.00
C1       0.91500    0.41500    0.80980   1.00
C1       0.91500    0.30980    0.91500   1.00
C1       1.02020    0.41500    0.91500   1.00
C1       0.80980    0.41500    0.91500   1.00
C1       0.91500    0.52020    0.91500   1.00
C1       0.91500    0.41500    1.02020   1.00
O1       0.41500    0.91500    0.91500   1.00
Zn1      0.44780    0.88220    0.88220   1.00
Zn1      0.38220    0.94780    0.88220   1.00
Zn1      0.38220    0.88220    0.94780   1.00
Zn1      0.44780    0.94780    0.94780   1.00
O2       0.43850    0.89150    0.82680   1.00
O2       0.43850    0.82680    0.89150   1.00
O2       0.50320    0.89150    0.89150   1.00
O2       0.39150    0.93850    0.82680   1.00
O2       0.32680    0.93850    0.89150   1.00
O2       0.39150    1.00320    0.89150   1.00
O2       0.39150    0.82680    0.93850   1.00
O2       0.32680    0.89150    0.93850   1.00
O2       0.39150    0.89150    1.00320   1.00
O2       0.50320    0.93850    0.93850   1.00
O2       0.43850    1.00320    0.93850   1.00
O2       0.43850    0.93850    1.00320   1.00
C1       0.41500    0.91500    0.80980   1.00
C1       0.41500    0.80980    0.91500   1.00
C1       0.52020    0.91500    0.91500   1.00
C1       0.30980    0.91500    0.91500   1.00
C1       0.41500    1.02020    0.91500   1.00
C1       0.41500    0.91500    1.02020   1.00
C5       0.86739    0.70150    1.13227   1.00
H2       0.86851    0.73005    1.14755   1.00
H2       0.89184    0.70187    1.11099   1.00
C5       0.87305    0.66815    1.16219   1.00
H2       0.90455    0.66390    1.16890   1.00
H2       0.86089    0.64044    1.15040   1.00
O_3      0.73455    0.68095    0.98000   1.00
C4       0.74996    0.75044    1.02100   1.00
C3c      0.78418    0.74344    1.04243   1.00
H1       0.81129    0.73801    1.02725   1.00
C3d      0.71506    0.75801    1.04135   1.00
C3       0.78395    0.74277    1.08354   1.00
O2       0.81929    0.74049    1.10248   1.00
C3       0.71457    0.75663    1.08227   1.00
H1       0.68684    0.76124    1.09657   1.00
C2       0.74882    0.74917    1.10439   1.00
C5       0.69440    0.67180    0.97879   1.00
H2       0.68367    0.66753    0.94838   1.00
H2       0.67660    0.69528    0.99266   1.00
C5       0.68856    0.63400    1.00122   1.00
H2       0.70029    0.63792    1.03129   1.00
H2       0.70617    0.61070    0.98691   1.00
C5       0.64530    0.62260    1.00254   1.00
H2       0.63334    0.61891    0.97260   1.00
H2       0.62790    0.64522    1.01803   1.00
H2       0.64171    0.59447    1.01830   1.00
C5       0.67489    0.80159    1.01105   1.00
C5       0.82826    0.70106    1.11070   1.00
H2       0.69830    0.81150    0.99088   1.00
H2       0.67462    0.82109    1.03712   1.00
H2       0.83083    0.68414    1.08300   1.00
H2       0.80539    0.68658    1.12895   1.00
H2       0.85848    0.67510    1.19055   1.00
H2       0.65190    0.84492    0.94250   1.00
H2       0.63769    0.86885    0.98766   1.00
C2       0.74790    0.74851    0.89605   1.00
C3       0.75774    0.78321    0.91597   1.00
O2       0.75719    0.81857    0.89674   1.00
C3       0.74077    0.71444    0.91826   1.00
H1       0.73417    0.68718    0.90385   1.00
C3a      0.75922    0.78337    0.95713   1.00
H1       0.76460    0.81067    0.97202   1.00
C3b      0.74105    0.71500    0.95922   1.00
C4       0.75023    0.74965    0.97900   1.00
O_3      0.68004    0.76214    1.02167   1.00
C5       0.79552    0.83019    0.88720   1.00
H2       0.81394    0.83327    0.91391   1.00
C5       0.79248    0.86974    0.86666   1.00
H2       0.80959    0.80868    0.86726   1.00
H2       0.78865    0.89279    0.88923   1.00
H2       0.76519    0.86945    0.84899   1.00
C5       0.82809    0.87881    0.84069   1.00
H2       0.85529    0.87593    0.85811   1.00
H2       0.82636    0.90904    0.82891   1.00
H2       0.82946    0.85881    0.81494   1.00
C5       0.63579    0.80483    0.99020   1.00
H2       0.61209    0.80148    1.01218   1.00
H2       0.63316    0.77985    0.96955   1.00
C5       0.63170    0.84369    0.96803   1.00
H2       0.60149    0.84680    0.95666   1.00
C5       0.70150    1.13227    0.86739   1.00
H2       0.73005    1.14755    0.86851   1.00
H2       0.70187    1.11099    0.89184   1.00
C5       0.66815    1.16219    0.87305   1.00
H2       0.66390    1.16890    0.90455   1.00
H2       0.64044    1.15040    0.86089   1.00
O_3      0.68095    0.98000    0.73455   1.00
C4       0.75044    1.02100    0.74996   1.00
C3c      0.74344    1.04243    0.78418   1.00
H1       0.73801    1.02725    0.81129   1.00
C3d      0.75801    1.04135    0.71506   1.00
C3       0.74277    1.08354    0.78395   1.00
O2       0.74049    1.10248    0.81929   1.00
C3       0.75663    1.08227    0.71457   1.00
H1       0.76124    1.09657    0.68684   1.00
C2       0.74917    1.10439    0.74882   1.00
C5       0.67180    0.97879    0.69440   1.00
H2       0.66753    0.94838    0.68367   1.00
H2       0.69528    0.99266    0.67660   1.00
C5       0.63400    1.00122    0.68856   1.00
H2       0.63792    1.03129    0.70029   1.00
H2       0.61070    0.98691    0.70617   1.00
C5       0.62260    1.00254    0.64530   1.00
H2       0.61891    0.97260    0.63334   1.00
H2       0.64522    1.01803    0.62790   1.00
H2       0.59447    1.01830    0.64171   1.00
C5       0.80159    1.01105    0.67489   1.00
C5       0.70106    1.11070    0.82826   1.00
H2       0.81150    0.99088    0.69830   1.00
H2       0.82109    1.03712    0.67462   1.00
H2       0.68414    1.08300    0.83083   1.00
H2       0.68658    1.12895    0.80539   1.00
H2       0.67510    1.19055    0.85848   1.00
H2       0.84492    0.94250    0.65190   1.00
H2       0.86885    0.98766    0.63769   1.00
C2       0.74851    0.89605    0.74790   1.00
C3       0.78321    0.91597    0.75774   1.00
O2       0.81857    0.89674    0.75719   1.00
C3       0.71444    0.91826    0.74077   1.00
H1       0.68718    0.90385    0.73417   1.00
C3a      0.78337    0.95713    0.75922   1.00
H1       0.81067    0.97202    0.76460   1.00
C3b      0.71500    0.95922    0.74105   1.00
C4       0.74965    0.97900    0.75023   1.00
O_3      0.76214    1.02167    0.68004   1.00
C5       0.83019    0.88720    0.79552   1.00
H2       0.83327    0.91391    0.81394   1.00
C5       0.86974    0.86666    0.79248   1.00
H2       0.80868    0.86726    0.80959   1.00
H2       0.89279    0.88923    0.78865   1.00
H2       0.86945    0.84899    0.76519   1.00
C5       0.87881    0.84069    0.82809   1.00
H2       0.87593    0.85811    0.85529   1.00
H2       0.90904    0.82891    0.82636   1.00
H2       0.85881    0.81494    0.82946   1.00
C5       0.80483    0.99020    0.63579   1.00
H2       0.80148    1.01218    0.61209   1.00
H2       0.77985    0.96955    0.63316   1.00
C5       0.84369    0.96803    0.63170   1.00
H2       0.84680    0.95666    0.60149   1.00
C5       0.36773    0.86739    0.79850   1.00
H2       0.35245    0.86851    0.76995   1.00
H2       0.38901    0.89184    0.79813   1.00
C5       0.33781    0.87305    0.83185   1.00
H2       0.33110    0.90455    0.83610   1.00
H2       0.34960    0.86089    0.85956   1.00
O_3      0.52000    0.73455    0.81905   1.00
C4       0.47900    0.74996    0.74956   1.00
C3c      0.45757    0.78418    0.75656   1.00
H1       0.47275    0.81129    0.76199   1.00
C3d      0.45865    0.71506    0.74199   1.00
C3       0.41646    0.78395    0.75723   1.00
O2       0.39752    0.81929    0.75951   1.00
C3       0.41773    0.71457    0.74337   1.00
H1       0.40343    0.68684    0.73876   1.00
C2       0.39561    0.74882    0.75083   1.00
C5       0.52121    0.69440    0.82820   1.00
H2       0.55162    0.68367    0.83247   1.00
H2       0.50734    0.67660    0.80472   1.00
C5       0.49878    0.68856    0.86600   1.00
H2       0.46871    0.70029    0.86208   1.00
H2       0.51309    0.70617    0.88930   1.00
C5       0.49746    0.64530    0.87740   1.00
H2       0.52740    0.63334    0.88109   1.00
H2       0.48197    0.62790    0.85478   1.00
H2       0.48170    0.64171    0.90553   1.00
C5       0.48895    0.67489    0.69841   1.00
C5       0.38930    0.82826    0.79894   1.00
H2       0.50912    0.69830    0.68850   1.00
H2       0.46288    0.67462    0.67891   1.00
H2       0.41700    0.83083    0.81586   1.00
H2       0.37105    0.80539    0.81342   1.00
H2       0.30945    0.85848    0.82490   1.00
H2       0.55750    0.65190    0.65508   1.00
H2       0.51234    0.63769    0.63115   1.00
C2       0.60395    0.74790    0.75149   1.00
C3       0.58403    0.75774    0.71679   1.00
O2       0.60326    0.75719    0.68143   1.00
C3       0.58174    0.74077    0.78556   1.00
H1       0.59615    0.73417    0.81282   1.00
C3a      0.54287    0.75922    0.71663   1.00
H1       0.52798    0.76460    0.68933   1.00
C3b      0.54078    0.74105    0.78500   1.00
C4       0.52100    0.75023    0.75035   1.00
O_3      0.47833    0.68004    0.73786   1.00
C5       0.61280    0.79552    0.66981   1.00
H2       0.58609    0.81394    0.66673   1.00
C5       0.63334    0.79248    0.63026   1.00
H2       0.63274    0.80959    0.69132   1.00
H2       0.61077    0.78865    0.60721   1.00
H2       0.65101    0.76519    0.63055   1.00
C5       0.65931    0.82809    0.62119   1.00
H2       0.64189    0.85529    0.62407   1.00
H2       0.67109    0.82636    0.59096   1.00
H2       0.68506    0.82946    0.64119   1.00
C5       0.50980    0.63579    0.69517   1.00
H2       0.48782    0.61209    0.69852   1.00
H2       0.53045    0.63316    0.72015   1.00
C5       0.53197    0.63170    0.65631   1.00
H2       0.54334    0.60149    0.65320   1.00
C5       1.13227    0.86739    0.70150   1.00
H2       1.14755    0.86851    0.73005   1.00
H2       1.11099    0.89184    0.70187   1.00
C5       1.16219    0.87305    0.66815   1.00
H2       1.16890    0.90455    0.66390   1.00
H2       1.15040    0.86089    0.64044   1.00
O_3      0.98000    0.73455    0.68095   1.00
C4       1.02100    0.74996    0.75044   1.00
C3c      1.04243    0.78418    0.74344   1.00
H1       1.02725    0.81129    0.73801   1.00
C3d      1.04135    0.71506    0.75801   1.00
C3       1.08354    0.78395    0.74277   1.00
O2       1.10248    0.81929    0.74049   1.00
C3       1.08227    0.71457    0.75663   1.00
H1       1.09657    0.68684    0.76124   1.00
C2       1.10439    0.74882    0.74917   1.00
C5       0.97879    0.69440    0.67180   1.00
H2       0.94838    0.68367    0.66753   1.00
H2       0.99266    0.67660    0.69528   1.00
C5       1.00122    0.68856    0.63400   1.00
H2       1.03129    0.70029    0.63792   1.00
H2       0.98691    0.70617    0.61070   1.00
C5       1.00254    0.64530    0.62260   1.00
H2       0.97260    0.63334    0.61891   1.00
H2       1.01803    0.62790    0.64522   1.00
H2       1.01830    0.64171    0.59447   1.00
C5       1.01105    0.67489    0.80159   1.00
C5       1.11070    0.82826    0.70106   1.00
H2       0.99088    0.69830    0.81150   1.00
H2       1.03712    0.67462    0.82109   1.00
H2       1.08300    0.83083    0.68414   1.00
H2       1.12895    0.80539    0.68658   1.00
H2       1.19055    0.85848    0.67510   1.00
H2       0.94250    0.65190    0.84492   1.00
H2       0.98766    0.63769    0.86885   1.00
C2       0.89605    0.74790    0.74851   1.00
C3       0.91597    0.75774    0.78321   1.00
O2       0.89674    0.75719    0.81857   1.00
C3       0.91826    0.74077    0.71444   1.00
H1       0.90385    0.73417    0.68718   1.00
C3a      0.95713    0.75922    0.78337   1.00
H1       0.97202    0.76460    0.81067   1.00
C3b      0.95922    0.74105    0.71500   1.00
C4       0.97900    0.75023    0.74965   1.00
O_3      1.02167    0.68004    0.76214   1.00
C5       0.88720    0.79552    0.83019   1.00
H2       0.91391    0.81394    0.83327   1.00
C5       0.86666    0.79248    0.86974   1.00
H2       0.86726    0.80959    0.80868   1.00
H2       0.88923    0.78865    0.89279   1.00
H2       0.84899    0.76519    0.86945   1.00
C5       0.84069    0.82809    0.87881   1.00
H2       0.85811    0.85529    0.87593   1.00
H2       0.82891    0.82636    0.90904   1.00
H2       0.81494    0.82946    0.85881   1.00
C5       0.99020    0.63579    0.80483   1.00
H2       1.01218    0.61209    0.80148   1.00
H2       0.96955    0.63316    0.77985   1.00
C5       0.96803    0.63170    0.84369   1.00
H2       0.95666    0.60149    0.84680   1.00
C5       0.79850    0.36773    0.86739   1.00
H2       0.76995    0.35245    0.86851   1.00
H2       0.79813    0.38901    0.89184   1.00
C5       0.83185    0.33781    0.87305   1.00
H2       0.83610    0.33110    0.90455   1.00
H2       0.85956    0.34960    0.86089   1.00
O_3      0.81905    0.52000    0.73455   1.00
C4       0.74956    0.47900    0.74996   1.00
C3c      0.75656    0.45757    0.78418   1.00
H1       0.76199    0.47275    0.81129   1.00
C3d      0.74199    0.45865    0.71506   1.00
C3       0.75723    0.41646    0.78395   1.00
O2       0.75951    0.39752    0.81929   1.00
C3       0.74337    0.41773    0.71457   1.00
H1       0.73876    0.40343    0.68684   1.00
C2       0.75083    0.39561    0.74882   1.00
C5       0.82820    0.52121    0.69440   1.00
H2       0.83247    0.55162    0.68367   1.00
H2       0.80472    0.50734    0.67660   1.00
C5       0.86600    0.49878    0.68856   1.00
H2       0.86208    0.46871    0.70029   1.00
H2       0.88930    0.51309    0.70617   1.00
C5       0.87740    0.49746    0.64530   1.00
H2       0.88109    0.52740    0.63334   1.00
H2       0.85478    0.48197    0.62790   1.00
H2       0.90553    0.48170    0.64171   1.00
C5       0.69841    0.48895    0.67489   1.00
C5       0.79894    0.38930    0.82826   1.00
H2       0.68850    0.50912    0.69830   1.00
H2       0.67891    0.46288    0.67462   1.00
H2       0.81586    0.41700    0.83083   1.00
H2       0.81342    0.37105    0.80539   1.00
H2       0.82490    0.30945    0.85848   1.00
H2       0.65508    0.55750    0.65190   1.00
H2       0.63115    0.51234    0.63769   1.00
C2       0.75149    0.60395    0.74790   1.00
C3       0.71679    0.58403    0.75774   1.00
O2       0.68143    0.60326    0.75719   1.00
C3       0.78556    0.58174    0.74077   1.00
H1       0.81282    0.59615    0.73417   1.00
C3a      0.71663    0.54287    0.75922   1.00
H1       0.68933    0.52798    0.76460   1.00
C3b      0.78500    0.54078    0.74105   1.00
C4       0.75035    0.52100    0.75023   1.00
O_3      0.73786    0.47833    0.68004   1.00
C5       0.66981    0.61280    0.79552   1.00
H2       0.66673    0.58609    0.81394   1.00
C5       0.63026    0.63334    0.79248   1.00
H2       0.69132    0.63274    0.80959   1.00
H2       0.60721    0.61077    0.78865   1.00
H2       0.63055    0.65101    0.76519   1.00
C5       0.62119    0.65931    0.82809   1.00
H2       0.62407    0.64189    0.85529   1.00
H2       0.59096    0.67109    0.82636   1.00
H2       0.64119    0.68506    0.82946   1.00
C5       0.69517    0.50980    0.63579   1.00
H2       0.69852    0.48782    0.61209   1.00
H2       0.72015    0.53045    0.63316   1.00
C5       0.65631    0.53197    0.63170   1.00
H2       0.65320    0.54334    0.60149   1.00
C5       0.86739    0.79850    0.36773   1.00
H2       0.86851    0.76995    0.35245   1.00
H2       0.89184    0.79813    0.38901   1.00
C5       0.87305    0.83185    0.33781   1.00
H2       0.90455    0.83610    0.33110   1.00
H2       0.86089    0.85956    0.34960   1.00
O_3      0.73455    0.81905    0.52000   1.00
C4       0.74996    0.74956    0.47900   1.00
C3c      0.78418    0.75656    0.45757   1.00
H1       0.81129    0.76199    0.47275   1.00
C3d      0.71506    0.74199    0.45865   1.00
C3       0.78395    0.75723    0.41646   1.00
O2       0.81929    0.75951    0.39752   1.00
C3       0.71457    0.74337    0.41773   1.00
H1       0.68684    0.73876    0.40343   1.00
C2       0.74882    0.75083    0.39561   1.00
C5       0.69440    0.82820    0.52121   1.00
H2       0.68367    0.83247    0.55162   1.00
H2       0.67660    0.80472    0.50734   1.00
C5       0.68856    0.86600    0.49878   1.00
H2       0.70029    0.86208    0.46871   1.00
H2       0.70617    0.88930    0.51309   1.00
C5       0.64530    0.87740    0.49746   1.00
H2       0.63334    0.88109    0.52740   1.00
H2       0.62790    0.85478    0.48197   1.00
H2       0.64171    0.90553    0.48170   1.00
C5       0.67489    0.69841    0.48895   1.00
C5       0.82826    0.79894    0.38930   1.00
H2       0.69830    0.68850    0.50912   1.00
H2       0.67462    0.67891    0.46288   1.00
H2       0.83083    0.81586    0.41700   1.00
H2       0.80539    0.81342    0.37105   1.00
H2       0.85848    0.82490    0.30945   1.00
H2       0.65190    0.65508    0.55750   1.00
H2       0.63769    0.63115    0.51234   1.00
C2       0.74790    0.75149    0.60395   1.00
C3       0.75774    0.71679    0.58403   1.00
O2       0.75719    0.68143    0.60326   1.00
C3       0.74077    0.78556    0.58174   1.00
H1       0.73417    0.81282    0.59615   1.00
C3a      0.75922    0.71663    0.54287   1.00
H1       0.76460    0.68933    0.52798   1.00
C3b      0.74105    0.78500    0.54078   1.00
C4       0.75023    0.75035    0.52100   1.00
O_3      0.68004    0.73786    0.47833   1.00
C5       0.79552    0.66981    0.61280   1.00
H2       0.81394    0.66673    0.58609   1.00
C5       0.79248    0.63026    0.63334   1.00
H2       0.80959    0.69132    0.63274   1.00
H2       0.78865    0.60721    0.61077   1.00
H2       0.76519    0.63055    0.65101   1.00
C5       0.82809    0.62119    0.65931   1.00
H2       0.85529    0.62407    0.64189   1.00
H2       0.82636    0.59096    0.67109   1.00
H2       0.82946    0.64119    0.68506   1.00
C5       0.63579    0.69517    0.50980   1.00
H2       0.61209    0.69852    0.48782   1.00
H2       0.63316    0.72015    0.53045   1.00
C5       0.63170    0.65631    0.53197   1.00
H2       0.60149    0.65320    0.54334   1.00
C5       0.36739    0.20150    1.13227   1.00
H2       0.36851    0.23005    1.14755   1.00
H2       0.39184    0.20187    1.11099   1.00
C5       0.37305    0.16815    1.16219   1.00
H2       0.40455    0.16390    1.16890   1.00
H2       0.36089    0.14044    1.15040   1.00
O_3      0.23455    0.18095    0.98000   1.00
C4       0.24996    0.25044    1.02100   1.00
C3c      0.28418    0.24344    1.04243   1.00
H1       0.31129    0.23801    1.02725   1.00
C3d      0.21506    0.25801    1.04135   1.00
C3       0.28395    0.24277    1.08354   1.00
O2       0.31929    0.24049    1.10248   1.00
C3       0.21457    0.25663    1.08227   1.00
H1       0.18684    0.26124    1.09657   1.00
C2       0.24882    0.24917    1.10439   1.00
C5       0.19440    0.17180    0.97879   1.00
H2       0.18367    0.16753    0.94838   1.00
H2       0.17660    0.19528    0.99266   1.00
C5       0.18856    0.13400    1.00122   1.00
H2       0.20029    0.13792    1.03129   1.00
H2       0.20617    0.11070    0.98691   1.00
C5       0.14530    0.12260    1.00254   1.00
H2       0.13334    0.11891    0.97260   1.00
H2       0.12790    0.14522    1.01803   1.00
H2       0.14171    0.09447    1.01830   1.00
C5       0.17489    0.30159    1.01105   1.00
C5       0.32826    0.20106    1.11070   1.00
H2       0.19830    0.31150    0.99088   1.00
H2       0.17462    0.32109    1.03712   1.00
H2       0.33083    0.18414    1.08300   1.00
H2       0.30539    0.18658    1.12895   1.00
H2       0.35848    0.17510    1.19055   1.00
H2       0.15190    0.34492    0.94250   1.00
H2       0.13769    0.36885    0.98766   1.00
C2       0.24790    0.24851    0.89605   1.00
C3       0.25774    0.28321    0.91597   1.00
O2       0.25719    0.31857    0.89674   1.00
C3       0.24077    0.21444    0.91826   1.00
H1       0.23417    0.18718    0.90385   1.00
C3a      0.25922    0.28337    0.95713   1.00
H1       0.26460    0.31067    0.97202   1.00
C3b      0.24105    0.21500    0.95922   1.00
C4       0.25023    0.24965    0.97900   1.00
O_3      0.18004    0.26214    1.02167   1.00
C5       0.29552    0.33019    0.88720   1.00
H2       0.31394    0.33327    0.91391   1.00
C5       0.29248    0.36974    0.86666   1.00
H2       0.30959    0.30868    0.86726   1.00
H2       0.28865    0.39279    0.88923   1.00
H2       0.26519    0.36945    0.84899   1.00
C5       0.32809    0.37881    0.84069   1.00
H2       0.35529    0.37593    0.85811   1.00
H2       0.32636    0.40904    0.82891   1.00
H2       0.32946    0.35881    0.81494   1.00
C5       0.13579    0.30483    0.99020   1.00
H2       0.11209    0.30148    1.01218   1.00
H2       0.13316    0.27985    0.96955   1.00
C5       0.13170    0.34369    0.96803   1.00
H2       0.10149    0.34680    0.95666   1.00
C5       0.20150    0.63227    0.86739   1.00
H2       0.23005    0.64755    0.86851   1.00
H2       0.20187    0.61099    0.89184   1.00
C5       0.16815    0.66219    0.87305   1.00
H2       0.16390    0.66890    0.90455   1.00
H2       0.14044    0.65040    0.86089   1.00
O_3      0.18095    0.48000    0.73455   1.00
C4       0.25044    0.52100    0.74996   1.00
C3c      0.24344    0.54243    0.78418   1.00
H1       0.23801    0.52725    0.81129   1.00
C3d      0.25801    0.54135    0.71506   1.00
C3       0.24277    0.58354    0.78395   1.00
O2       0.24049    0.60248    0.81929   1.00
C3       0.25663    0.58227    0.71457   1.00
H1       0.26124    0.59657    0.68684   1.00
C2       0.24917    0.60439    0.74882   1.00
C5       0.17180    0.47879    0.69440   1.00
H2       0.16753    0.44838    0.68367   1.00
H2       0.19528    0.49266    0.67660   1.00
C5       0.13400    0.50122    0.68856   1.00
H2       0.13792    0.53129    0.70029   1.00
H2       0.11070    0.48691    0.70617   1.00
C5       0.12260    0.50254    0.64530   1.00
H2       0.11891    0.47260    0.63334   1.00
H2       0.14522    0.51803    0.62790   1.00
H2       0.09447    0.51830    0.64171   1.00
C5       0.30159    0.51105    0.67489   1.00
C5       0.20106    0.61070    0.82826   1.00
H2       0.31150    0.49088    0.69830   1.00
H2       0.32109    0.53712    0.67462   1.00
H2       0.18414    0.58300    0.83083   1.00
H2       0.18658    0.62895    0.80539   1.00
H2       0.17510    0.69055    0.85848   1.00
H2       0.34492    0.44250    0.65190   1.00
H2       0.36885    0.48766    0.63769   1.00
C2       0.24851    0.39605    0.74790   1.00
C3       0.28321    0.41597    0.75774   1.00
O2       0.31857    0.39674    0.75719   1.00
C3       0.21444    0.41826    0.74077   1.00
H1       0.18718    0.40385    0.73417   1.00
C3a      0.28337    0.45713    0.75922   1.00
H1       0.31067    0.47202    0.76460   1.00
C3b      0.21500    0.45922    0.74105   1.00
C4       0.24965    0.47900    0.75023   1.00
O_3      0.26214    0.52167    0.68004   1.00
C5       0.33019    0.38720    0.79552   1.00
H2       0.33327    0.41391    0.81394   1.00
C5       0.36974    0.36666    0.79248   1.00
H2       0.30868    0.36726    0.80959   1.00
H2       0.39279    0.38923    0.78865   1.00
H2       0.36945    0.34899    0.76519   1.00
C5       0.37881    0.34069    0.82809   1.00
H2       0.37593    0.35811    0.85529   1.00
H2       0.40904    0.32891    0.82636   1.00
H2       0.35881    0.31494    0.82946   1.00
C5       0.30483    0.49020    0.63579   1.00
H2       0.30148    0.51218    0.61209   1.00
H2       0.27985    0.46955    0.63316   1.00
C5       0.34369    0.46803    0.63170   1.00
H2       0.34680    0.45666    0.60149   1.00
C5       -0.13227   0.36739    0.79850   1.00
H2       -0.14755   0.36851    0.76995   1.00
H2       -0.11099   0.39184    0.79813   1.00
C5       -0.16219   0.37305    0.83185   1.00
H2       -0.16890   0.40455    0.83610   1.00
H2       -0.15040   0.36089    0.85956   1.00
O_3      0.02000    0.23455    0.81905   1.00
C4       -0.02100   0.24996    0.74956   1.00
C3c      -0.04243   0.28418    0.75656   1.00
H1       -0.02725   0.31129    0.76199   1.00
C3d      -0.04135   0.21506    0.74199   1.00
C3       -0.08354   0.28395    0.75723   1.00
O2       -0.10248   0.31929    0.75951   1.00
C3       -0.08227   0.21457    0.74337   1.00
H1       -0.09657   0.18684    0.73876   1.00
C2       -0.10439   0.24882    0.75083   1.00
C5       0.02121    0.19440    0.82820   1.00
H2       0.05162    0.18367    0.83247   1.00
H2       0.00734    0.17660    0.80472   1.00
C5       -0.00122   0.18856    0.86600   1.00
H2       -0.03129   0.20029    0.86208   1.00
H2       0.01309    0.20617    0.88930   1.00
C5       -0.00254   0.14530    0.87740   1.00
H2       0.02740    0.13334    0.88109   1.00
H2       -0.01803   0.12790    0.85478   1.00
H2       -0.01830   0.14171    0.90553   1.00
C5       -0.01105   0.17489    0.69841   1.00
C5       -0.11070   0.32826    0.79894   1.00
H2       0.00912    0.19830    0.68850   1.00
H2       -0.03712   0.17462    0.67891   1.00
H2       -0.08300   0.33083    0.81586   1.00
H2       -0.12895   0.30539    0.81342   1.00
H2       -0.19055   0.35848    0.82490   1.00
H2       0.05750    0.15190    0.65508   1.00
H2       0.01234    0.13769    0.63115   1.00
C2       0.10395    0.24790    0.75149   1.00
C3       0.08403    0.25774    0.71679   1.00
O2       0.10326    0.25719    0.68143   1.00
C3       0.08174    0.24077    0.78556   1.00
H1       0.09615    0.23417    0.81282   1.00
C3a      0.04287    0.25922    0.71663   1.00
H1       0.02798    0.26460    0.68933   1.00
C3b      0.04078    0.24105    0.78500   1.00
C4       0.02100    0.25023    0.75035   1.00
O_3      -0.02167   0.18004    0.73786   1.00
C5       0.11280    0.29552    0.66981   1.00
H2       0.08609    0.31394    0.66673   1.00
C5       0.13334    0.29248    0.63026   1.00
H2       0.13274    0.30959    0.69132   1.00
H2       0.11077    0.28865    0.60721   1.00
H2       0.15101    0.26519    0.63055   1.00
C5       0.15931    0.32809    0.62119   1.00
H2       0.14189    0.35529    0.62407   1.00
H2       0.17109    0.32636    0.59096   1.00
H2       0.18506    0.32946    0.64119   1.00
C5       0.00980    0.13579    0.69517   1.00
H2       -0.01218   0.11209    0.69852   1.00
H2       0.03045    0.13316    0.72015   1.00
C5       0.03197    0.13170    0.65631   1.00
H2       0.04334    0.10149    0.65320   1.00
C5       0.63227    0.36739    0.70150   1.00
H2       0.64755    0.36851    0.73005   1.00
H2       0.61099    0.39184    0.70187   1.00
C5       0.66219    0.37305    0.66815   1.00
H2       0.66890    0.40455    0.66390   1.00
H2       0.65040    0.36089    0.64044   1.00
O_3      0.48000    0.23455    0.68095   1.00
C4       0.52100    0.24996    0.75044   1.00
C3c      0.54243    0.28418    0.74344   1.00
H1       0.52725    0.31129    0.73801   1.00
C3d      0.54135    0.21506    0.75801   1.00
C3       0.58354    0.28395    0.74277   1.00
O2       0.60248    0.31929    0.74049   1.00
C3       0.58227    0.21457    0.75663   1.00
H1       0.59657    0.18684    0.76124   1.00
C2       0.60439    0.24882    0.74917   1.00
C5       0.47879    0.19440    0.67180   1.00
H2       0.44838    0.18367    0.66753   1.00
H2       0.49266    0.17660    0.69528   1.00
C5       0.50122    0.18856    0.63400   1.00
H2       0.53129    0.20029    0.63792   1.00
H2       0.48691    0.20617    0.61070   1.00
C5       0.50254    0.14530    0.62260   1.00
H2       0.47260    0.13334    0.61891   1.00
H2       0.51803    0.12790    0.64522   1.00
H2       0.51830    0.14171    0.59447   1.00
C5       0.51105    0.17489    0.80159   1.00
C5       0.61070    0.32826    0.70106   1.00
H2       0.49088    0.19830    0.81150   1.00
H2       0.53712    0.17462    0.82109   1.00
H2       0.58300    0.33083    0.68414   1.00
H2       0.62895    0.30539    0.68658   1.00
H2       0.69055    0.35848    0.67510   1.00
H2       0.44250    0.15190    0.84492   1.00
H2       0.48766    0.13769    0.86885   1.00
C2       0.39605    0.24790    0.74851   1.00
C3       0.41597    0.25774    0.78321   1.00
O2       0.39674    0.25719    0.81857   1.00
C3       0.41826    0.24077    0.71444   1.00
H1       0.40385    0.23417    0.68718   1.00
C3a      0.45713    0.25922    0.78337   1.00
H1       0.47202    0.26460    0.81067   1.00
C3b      0.45922    0.24105    0.71500   1.00
C4       0.47900    0.25023    0.74965   1.00
O_3      0.52167    0.18004    0.76214   1.00
C5       0.38720    0.29552    0.83019   1.00
H2       0.41391    0.31394    0.83327   1.00
C5       0.36666    0.29248    0.86974   1.00
H2       0.36726    0.30959    0.80868   1.00
H2       0.38923    0.28865    0.89279   1.00
H2       0.34899    0.26519    0.86945   1.00
C5       0.34069    0.32809    0.87881   1.00
H2       0.35811    0.35529    0.87593   1.00
H2       0.32891    0.32636    0.90904   1.00
H2       0.31494    0.32946    0.85881   1.00
C5       0.49020    0.13579    0.80483   1.00
H2       0.51218    0.11209    0.80148   1.00
H2       0.46955    0.13316    0.77985   1.00
C5       0.46803    0.13170    0.84369   1.00
H2       0.45666    0.10149    0.84680   1.00
C5       0.29850    -0.13227   0.86739   1.00
H2       0.26995    -0.14755   0.86851   1.00
H2       0.29813    -0.11099   0.89184   1.00
C5       0.33185    -0.16219   0.87305   1.00
H2       0.33610    -0.16890   0.90455   1.00
H2       0.35956    -0.15040   0.86089   1.00
O_3      0.31905    0.02000    0.73455   1.00
C4       0.24956    -0.02100   0.74996   1.00
C3c      0.25656    -0.04243   0.78418   1.00
H1       0.26199    -0.02725   0.81129   1.00
C3d      0.24199    -0.04135   0.71506   1.00
C3       0.25723    -0.08354   0.78395   1.00
O2       0.25951    -0.10248   0.81929   1.00
C3       0.24337    -0.08227   0.71457   1.00
H1       0.23876    -0.09657   0.68684   1.00
C2       0.25083    -0.10439   0.74882   1.00
C5       0.32820    0.02121    0.69440   1.00
H2       0.33247    0.05162    0.68367   1.00
H2       0.30472    0.00734    0.67660   1.00
C5       0.36600    -0.00122   0.68856   1.00
H2       0.36208    -0.03129   0.70029   1.00
H2       0.38930    0.01309    0.70617   1.00
C5       0.37740    -0.00254   0.64530   1.00
H2       0.38109    0.02740    0.63334   1.00
H2       0.35478    -0.01803   0.62790   1.00
H2       0.40553    -0.01830   0.64171   1.00
C5       0.19841    -0.01105   0.67489   1.00
C5       0.29894    -0.11070   0.82826   1.00
H2       0.18850    0.00912    0.69830   1.00
H2       0.17891    -0.03712   0.67462   1.00
H2       0.31586    -0.08300   0.83083   1.00
H2       0.31342    -0.12895   0.80539   1.00
H2       0.32490    -0.19055   0.85848   1.00
H2       0.15508    0.05750    0.65190   1.00
H2       0.13115    0.01234    0.63769   1.00
C2       0.25149    0.10395    0.74790   1.00
C3       0.21679    0.08403    0.75774   1.00
O2       0.18143    0.10326    0.75719   1.00
C3       0.28556    0.08174    0.74077   1.00
H1       0.31282    0.09615    0.73417   1.00
C3a      0.21663    0.04287    0.75922   1.00
H1       0.18933    0.02798    0.76460   1.00
C3b      0.28500    0.04078    0.74105   1.00
C4       0.25035    0.02100    0.75023   1.00
O_3      0.23786    -0.02167   0.68004   1.00
C5       0.16981    0.11280    0.79552   1.00
H2       0.16673    0.08609    0.81394   1.00
C5       0.13026    0.13334    0.79248   1.00
H2       0.19132    0.13274    0.80959   1.00
H2       0.10721    0.11077    0.78865   1.00
H2       0.13055    0.15101    0.76519   1.00
C5       0.12119    0.15931    0.82809   1.00
H2       0.12407    0.14189    0.85529   1.00
H2       0.09096    0.17109    0.82636   1.00
H2       0.14119    0.18506    0.82946   1.00
C5       0.19517    0.00980    0.63579   1.00
H2       0.19852    -0.01218   0.61209   1.00
H2       0.22015    0.03045    0.63316   1.00
C5       0.15631    0.03197    0.63170   1.00
H2       0.15320    0.04334    0.60149   1.00
C5       0.36739    0.29850    0.36773   1.00
H2       0.36851    0.26995    0.35245   1.00
H2       0.39184    0.29813    0.38901   1.00
C5       0.37305    0.33185    0.33781   1.00
H2       0.40455    0.33610    0.33110   1.00
H2       0.36089    0.35956    0.34960   1.00
O_3      0.23455    0.31905    0.52000   1.00
C4       0.24996    0.24956    0.47900   1.00
C3c      0.28418    0.25656    0.45757   1.00
H1       0.31129    0.26199    0.47275   1.00
C3d      0.21506    0.24199    0.45865   1.00
C3       0.28395    0.25723    0.41646   1.00
O2       0.31929    0.25951    0.39752   1.00
C3       0.21457    0.24337    0.41773   1.00
H1       0.18684    0.23876    0.40343   1.00
C2       0.24882    0.25083    0.39561   1.00
C5       0.19440    0.32820    0.52121   1.00
H2       0.18367    0.33247    0.55162   1.00
H2       0.17660    0.30472    0.50734   1.00
C5       0.18856    0.36600    0.49878   1.00
H2       0.20029    0.36208    0.46871   1.00
H2       0.20617    0.38930    0.51309   1.00
C5       0.14530    0.37740    0.49746   1.00
H2       0.13334    0.38109    0.52740   1.00
H2       0.12790    0.35478    0.48197   1.00
H2       0.14171    0.40553    0.48170   1.00
C5       0.17489    0.19841    0.48895   1.00
C5       0.32826    0.29894    0.38930   1.00
H2       0.19830    0.18850    0.50912   1.00
H2       0.17462    0.17891    0.46288   1.00
H2       0.33083    0.31586    0.41700   1.00
H2       0.30539    0.31342    0.37105   1.00
H2       0.35848    0.32490    0.30945   1.00
H2       0.15190    0.15508    0.55750   1.00
H2       0.13769    0.13115    0.51234   1.00
C2       0.24790    0.25149    0.60395   1.00
C3       0.25774    0.21679    0.58403   1.00
O2       0.25719    0.18143    0.60326   1.00
C3       0.24077    0.28556    0.58174   1.00
H1       0.23417    0.31282    0.59615   1.00
C3a      0.25922    0.21663    0.54287   1.00
H1       0.26460    0.18933    0.52798   1.00
C3b      0.24105    0.28500    0.54078   1.00
C4       0.25023    0.25035    0.52100   1.00
O_3      0.18004    0.23786    0.47833   1.00
C5       0.29552    0.16981    0.61280   1.00
H2       0.31394    0.16673    0.58609   1.00
C5       0.29248    0.13026    0.63334   1.00
H2       0.30959    0.19132    0.63274   1.00
H2       0.28865    0.10721    0.61077   1.00
H2       0.26519    0.13055    0.65101   1.00
C5       0.32809    0.12119    0.65931   1.00
H2       0.35529    0.12407    0.64189   1.00
H2       0.32636    0.09096    0.67109   1.00
H2       0.32946    0.14119    0.68506   1.00
C5       0.13579    0.19517    0.50980   1.00
H2       0.11209    0.19852    0.48782   1.00
H2       0.13316    0.22015    0.53045   1.00
C5       0.13170    0.15631    0.53197   1.00
H2       0.10149    0.15320    0.54334   1.00
C5       0.36739    0.70150    0.63227   1.00
H2       0.36851    0.73005    0.64755   1.00
H2       0.39184    0.70187    0.61099   1.00
C5       0.37305    0.66815    0.66219   1.00
H2       0.40455    0.66390    0.66890   1.00
H2       0.36089    0.64044    0.65040   1.00
O_3      0.23455    0.68095    0.48000   1.00
C4       0.24996    0.75044    0.52100   1.00
C3c      0.28418    0.74344    0.54243   1.00
H1       0.31129    0.73801    0.52725   1.00
C3d      0.21506    0.75801    0.54135   1.00
C3       0.28395    0.74277    0.58354   1.00
O2       0.31929    0.74049    0.60248   1.00
C3       0.21457    0.75663    0.58227   1.00
H1       0.18684    0.76124    0.59657   1.00
C2       0.24882    0.74917    0.60439   1.00
C5       0.19440    0.67180    0.47879   1.00
H2       0.18367    0.66753    0.44838   1.00
H2       0.17660    0.69528    0.49266   1.00
C5       0.18856    0.63400    0.50122   1.00
H2       0.20029    0.63792    0.53129   1.00
H2       0.20617    0.61070    0.48691   1.00
C5       0.14530    0.62260    0.50254   1.00
H2       0.13334    0.61891    0.47260   1.00
H2       0.12790    0.64522    0.51803   1.00
H2       0.14171    0.59447    0.51830   1.00
C5       0.17489    0.80159    0.51105   1.00
C5       0.32826    0.70106    0.61070   1.00
H2       0.19830    0.81150    0.49088   1.00
H2       0.17462    0.82109    0.53712   1.00
H2       0.33083    0.68414    0.58300   1.00
H2       0.30539    0.68658    0.62895   1.00
H2       0.35848    0.67510    0.69055   1.00
H2       0.15190    0.84492    0.44250   1.00
H2       0.13769    0.86885    0.48766   1.00
C2       0.24790    0.74851    0.39605   1.00
C3       0.25774    0.78321    0.41597   1.00
O2       0.25719    0.81857    0.39674   1.00
C3       0.24077    0.71444    0.41826   1.00
H1       0.23417    0.68718    0.40385   1.00
C3a      0.25922    0.78337    0.45713   1.00
H1       0.26460    0.81067    0.47202   1.00
C3b      0.24105    0.71500    0.45922   1.00
C4       0.25023    0.74965    0.47900   1.00
O_3      0.18004    0.76214    0.52167   1.00
C5       0.29552    0.83019    0.38720   1.00
H2       0.31394    0.83327    0.41391   1.00
C5       0.29248    0.86974    0.36666   1.00
H2       0.30959    0.80868    0.36726   1.00
H2       0.28865    0.89279    0.38923   1.00
H2       0.26519    0.86945    0.34899   1.00
C5       0.32809    0.87881    0.34069   1.00
H2       0.35529    0.87593    0.35811   1.00
H2       0.32636    0.90904    0.32891   1.00
H2       0.32946    0.85881    0.31494   1.00
C5       0.13579    0.80483    0.49020   1.00
H2       0.11209    0.80148    0.51218   1.00
H2       0.13316    0.77985    0.46955   1.00
C5       0.13170    0.84369    0.46803   1.00
H2       0.10149    0.84680    0.45666   1.00
C5       0.20150    1.13227    0.36739   1.00
H2       0.23005    1.14755    0.36851   1.00
H2       0.20187    1.11099    0.39184   1.00
C5       0.16815    1.16219    0.37305   1.00
H2       0.16390    1.16890    0.40455   1.00
H2       0.14044    1.15040    0.36089   1.00
O_3      0.18095    0.98000    0.23455   1.00
C4       0.25044    1.02100    0.24996   1.00
C3c      0.24344    1.04243    0.28418   1.00
H1       0.23801    1.02725    0.31129   1.00
C3d      0.25801    1.04135    0.21506   1.00
C3       0.24277    1.08354    0.28395   1.00
O2       0.24049    1.10248    0.31929   1.00
C3       0.25663    1.08227    0.21457   1.00
H1       0.26124    1.09657    0.18684   1.00
C2       0.24917    1.10439    0.24882   1.00
C5       0.17180    0.97879    0.19440   1.00
H2       0.16753    0.94838    0.18367   1.00
H2       0.19528    0.99266    0.17660   1.00
C5       0.13400    1.00122    0.18856   1.00
H2       0.13792    1.03129    0.20029   1.00
H2       0.11070    0.98691    0.20617   1.00
C5       0.12260    1.00254    0.14530   1.00
H2       0.11891    0.97260    0.13334   1.00
H2       0.14522    1.01803    0.12790   1.00
H2       0.09447    1.01830    0.14171   1.00
C5       0.30159    1.01105    0.17489   1.00
C5       0.20106    1.11070    0.32826   1.00
H2       0.31150    0.99088    0.19830   1.00
H2       0.32109    1.03712    0.17462   1.00
H2       0.18414    1.08300    0.33083   1.00
H2       0.18658    1.12895    0.30539   1.00
H2       0.17510    1.19055    0.35848   1.00
H2       0.34492    0.94250    0.15190   1.00
H2       0.36885    0.98766    0.13769   1.00
C2       0.24851    0.89605    0.24790   1.00
C3       0.28321    0.91597    0.25774   1.00
O2       0.31857    0.89674    0.25719   1.00
C3       0.21444    0.91826    0.24077   1.00
H1       0.18718    0.90385    0.23417   1.00
C3a      0.28337    0.95713    0.25922   1.00
H1       0.31067    0.97202    0.26460   1.00
C3b      0.21500    0.95922    0.24105   1.00
C4       0.24965    0.97900    0.25023   1.00
O_3      0.26214    1.02167    0.18004   1.00
C5       0.33019    0.88720    0.29552   1.00
H2       0.33327    0.91391    0.31394   1.00
C5       0.36974    0.86666    0.29248   1.00
H2       0.30868    0.86726    0.30959   1.00
H2       0.39279    0.88923    0.28865   1.00
H2       0.36945    0.84899    0.26519   1.00
C5       0.37881    0.84069    0.32809   1.00
H2       0.37593    0.85811    0.35529   1.00
H2       0.40904    0.82891    0.32636   1.00
H2       0.35881    0.81494    0.32946   1.00
C5       0.30483    0.99020    0.13579   1.00
H2       0.30148    1.01218    0.11209   1.00
H2       0.27985    0.96955    0.13316   1.00
C5       0.34369    0.96803    0.13170   1.00
H2       0.34680    0.95666    0.10149   1.00
C5       -0.13227   0.86739    0.29850   1.00
H2       -0.14755   0.86851    0.26995   1.00
H2       -0.11099   0.89184    0.29813   1.00
C5       -0.16219   0.87305    0.33185   1.00
H2       -0.16890   0.90455    0.33610   1.00
H2       -0.15040   0.86089    0.35956   1.00
O_3      0.02000    0.73455    0.31905   1.00
C4       -0.02100   0.74996    0.24956   1.00
C3c      -0.04243   0.78418    0.25656   1.00
H1       -0.02725   0.81129    0.26199   1.00
C3d      -0.04135   0.71506    0.24199   1.00
C3       -0.08354   0.78395    0.25723   1.00
O2       -0.10248   0.81929    0.25951   1.00
C3       -0.08227   0.71457    0.24337   1.00
H1       -0.09657   0.68684    0.23876   1.00
C2       -0.10439   0.74882    0.25083   1.00
C5       0.02121    0.69440    0.32820   1.00
H2       0.05162    0.68367    0.33247   1.00
H2       0.00734    0.67660    0.30472   1.00
C5       -0.00122   0.68856    0.36600   1.00
H2       -0.03129   0.70029    0.36208   1.00
H2       0.01309    0.70617    0.38930   1.00
C5       -0.00254   0.64530    0.37740   1.00
H2       0.02740    0.63334    0.38109   1.00
H2       -0.01803   0.62790    0.35478   1.00
H2       -0.01830   0.64171    0.40553   1.00
C5       -0.01105   0.67489    0.19841   1.00
C5       -0.11070   0.82826    0.29894   1.00
H2       0.00912    0.69830    0.18850   1.00
H2       -0.03712   0.67462    0.17891   1.00
H2       -0.08300   0.83083    0.31586   1.00
H2       -0.12895   0.80539    0.31342   1.00
H2       -0.19055   0.85848    0.32490   1.00
H2       0.05750    0.65190    0.15508   1.00
H2       0.01234    0.63769    0.13115   1.00
C2       0.10395    0.74790    0.25149   1.00
C3       0.08403    0.75774    0.21679   1.00
O2       0.10326    0.75719    0.18143   1.00
C3       0.08174    0.74077    0.28556   1.00
H1       0.09615    0.73417    0.31282   1.00
C3a      0.04287    0.75922    0.21663   1.00
H1       0.02798    0.76460    0.18933   1.00
C3b      0.04078    0.74105    0.28500   1.00
C4       0.02100    0.75023    0.25035   1.00
O_3      -0.02167   0.68004    0.23786   1.00
C5       0.11280    0.79552    0.16981   1.00
H2       0.08609    0.81394    0.16673   1.00
C5       0.13334    0.79248    0.13026   1.00
H2       0.13274    0.80959    0.19132   1.00
H2       0.11077    0.78865    0.10721   1.00
H2       0.15101    0.76519    0.13055   1.00
C5       0.15931    0.82809    0.12119   1.00
H2       0.14189    0.85529    0.12407   1.00
H2       0.17109    0.82636    0.09096   1.00
H2       0.18506    0.82946    0.14119   1.00
C5       0.00980    0.63579    0.19517   1.00
H2       -0.01218   0.61209    0.19852   1.00
H2       0.03045    0.63316    0.22015   1.00
C5       0.03197    0.63170    0.15631   1.00
H2       0.04334    0.60149    0.15320   1.00
C5       0.63227    0.86739    0.20150   1.00
H2       0.64755    0.86851    0.23005   1.00
H2       0.61099    0.89184    0.20187   1.00
C5       0.66219    0.87305    0.16815   1.00
H2       0.66890    0.90455    0.16390   1.00
H2       0.65040    0.86089    0.14044   1.00
O_3      0.48000    0.73455    0.18095   1.00
C4       0.52100    0.74996    0.25044   1.00
C3c      0.54243    0.78418    0.24344   1.00
H1       0.52725    0.81129    0.23801   1.00
C3d      0.54135    0.71506    0.25801   1.00
C3       0.58354    0.78395    0.24277   1.00
O2       0.60248    0.81929    0.24049   1.00
C3       0.58227    0.71457    0.25663   1.00
H1       0.59657    0.68684    0.26124   1.00
C2       0.60439    0.74882    0.24917   1.00
C5       0.47879    0.69440    0.17180   1.00
H2       0.44838    0.68367    0.16753   1.00
H2       0.49266    0.67660    0.19528   1.00
C5       0.50122    0.68856    0.13400   1.00
H2       0.53129    0.70029    0.13792   1.00
H2       0.48691    0.70617    0.11070   1.00
C5       0.50254    0.64530    0.12260   1.00
H2       0.47260    0.63334    0.11891   1.00
H2       0.51803    0.62790    0.14522   1.00
H2       0.51830    0.64171    0.09447   1.00
C5       0.51105    0.67489    0.30159   1.00
C5       0.61070    0.82826    0.20106   1.00
H2       0.49088    0.69830    0.31150   1.00
H2       0.53712    0.67462    0.32109   1.00
H2       0.58300    0.83083    0.18414   1.00
H2       0.62895    0.80539    0.18658   1.00
H2       0.69055    0.85848    0.17510   1.00
H2       0.44250    0.65190    0.34492   1.00
H2       0.48766    0.63769    0.36885   1.00
C2       0.39605    0.74790    0.24851   1.00
C3       0.41597    0.75774    0.28321   1.00
O2       0.39674    0.75719    0.31857   1.00
C3       0.41826    0.74077    0.21444   1.00
H1       0.40385    0.73417    0.18718   1.00
C3a      0.45713    0.75922    0.28337   1.00
H1       0.47202    0.76460    0.31067   1.00
C3b      0.45922    0.74105    0.21500   1.00
C4       0.47900    0.75023    0.24965   1.00
O_3      0.52167    0.68004    0.26214   1.00
C5       0.38720    0.79552    0.33019   1.00
H2       0.41391    0.81394    0.33327   1.00
C5       0.36666    0.79248    0.36974   1.00
H2       0.36726    0.80959    0.30868   1.00
H2       0.38923    0.78865    0.39279   1.00
H2       0.34899    0.76519    0.36945   1.00
C5       0.34069    0.82809    0.37881   1.00
H2       0.35811    0.85529    0.37593   1.00
H2       0.32891    0.82636    0.40904   1.00
H2       0.31494    0.82946    0.35881   1.00
C5       0.49020    0.63579    0.30483   1.00
H2       0.51218    0.61209    0.30148   1.00
H2       0.46955    0.63316    0.27985   1.00
C5       0.46803    0.63170    0.34369   1.00
H2       0.45666    0.60149    0.34680   1.00
C5       0.29850    0.36773    0.36739   1.00
H2       0.26995    0.35245    0.36851   1.00
H2       0.29813    0.38901    0.39184   1.00
C5       0.33185    0.33781    0.37305   1.00
H2       0.33610    0.33110    0.40455   1.00
H2       0.35956    0.34960    0.36089   1.00
O_3      0.31905    0.52000    0.23455   1.00
C4       0.24956    0.47900    0.24996   1.00
C3c      0.25656    0.45757    0.28418   1.00
H1       0.26199    0.47275    0.31129   1.00
C3d      0.24199    0.45865    0.21506   1.00
C3       0.25723    0.41646    0.28395   1.00
O2       0.25951    0.39752    0.31929   1.00
C3       0.24337    0.41773    0.21457   1.00
H1       0.23876    0.40343    0.18684   1.00
C2       0.25083    0.39561    0.24882   1.00
C5       0.32820    0.52121    0.19440   1.00
H2       0.33247    0.55162    0.18367   1.00
H2       0.30472    0.50734    0.17660   1.00
C5       0.36600    0.49878    0.18856   1.00
H2       0.36208    0.46871    0.20029   1.00
H2       0.38930    0.51309    0.20617   1.00
C5       0.37740    0.49746    0.14530   1.00
H2       0.38109    0.52740    0.13334   1.00
H2       0.35478    0.48197    0.12790   1.00
H2       0.40553    0.48170    0.14171   1.00
C5       0.19841    0.48895    0.17489   1.00
C5       0.29894    0.38930    0.32826   1.00
H2       0.18850    0.50912    0.19830   1.00
H2       0.17891    0.46288    0.17462   1.00
H2       0.31586    0.41700    0.33083   1.00
H2       0.31342    0.37105    0.30539   1.00
H2       0.32490    0.30945    0.35848   1.00
H2       0.15508    0.55750    0.15190   1.00
H2       0.13115    0.51234    0.13769   1.00
C2       0.25149    0.60395    0.24790   1.00
C3       0.21679    0.58403    0.25774   1.00
O2       0.18143    0.60326    0.25719   1.00
C3       0.28556    0.58174    0.24077   1.00
H1       0.31282    0.59615    0.23417   1.00
C3a      0.21663    0.54287    0.25922   1.00
H1       0.18933    0.52798    0.26460   1.00
C3b      0.28500    0.54078    0.24105   1.00
C4       0.25035    0.52100    0.25023   1.00
O_3      0.23786    0.47833    0.18004   1.00
C5       0.16981    0.61280    0.29552   1.00
H2       0.16673    0.58609    0.31394   1.00
C5       0.13026    0.63334    0.29248   1.00
H2       0.19132    0.63274    0.30959   1.00
H2       0.10721    0.61077    0.28865   1.00
H2       0.13055    0.65101    0.26519   1.00
C5       0.12119    0.65931    0.32809   1.00
H2       0.12407    0.64189    0.35529   1.00
H2       0.09096    0.67109    0.32636   1.00
H2       0.14119    0.68506    0.32946   1.00
C5       0.19517    0.50980    0.13579   1.00
H2       0.19852    0.48782    0.11209   1.00
H2       0.22015    0.53045    0.13316   1.00
C5       0.15631    0.53197    0.13170   1.00
H2       0.15320    0.54334    0.10149   1.00
C5       0.36739    0.79850    -0.13227   1.00
H2       0.36851    0.76995    -0.14755   1.00
H2       0.39184    0.79813    -0.11099   1.00
C5       0.37305    0.83185    -0.16219   1.00
H2       0.40455    0.83610    -0.16890   1.00
H2       0.36089    0.85956    -0.15040   1.00
O_3      0.23455    0.81905    0.02000   1.00
C4       0.24996    0.74956    -0.02100   1.00
C3c      0.28418    0.75656    -0.04243   1.00
H1       0.31129    0.76199    -0.02725   1.00
C3d      0.21506    0.74199    -0.04135   1.00
C3       0.28395    0.75723    -0.08354   1.00
O2       0.31929    0.75951    -0.10248   1.00
C3       0.21457    0.74337    -0.08227   1.00
H1       0.18684    0.73876    -0.09657   1.00
C2       0.24882    0.75083    -0.10439   1.00
C5       0.19440    0.82820    0.02121   1.00
H2       0.18367    0.83247    0.05162   1.00
H2       0.17660    0.80472    0.00734   1.00
C5       0.18856    0.86600    -0.00122   1.00
H2       0.20029    0.86208    -0.03129   1.00
H2       0.20617    0.88930    0.01309   1.00
C5       0.14530    0.87740    -0.00254   1.00
H2       0.13334    0.88109    0.02740   1.00
H2       0.12790    0.85478    -0.01803   1.00
H2       0.14171    0.90553    -0.01830   1.00
C5       0.17489    0.69841    -0.01105   1.00
C5       0.32826    0.79894    -0.11070   1.00
H2       0.19830    0.68850    0.00912   1.00
H2       0.17462    0.67891    -0.03712   1.00
H2       0.33083    0.81586    -0.08300   1.00
H2       0.30539    0.81342    -0.12895   1.00
H2       0.35848    0.82490    -0.19055   1.00
H2       0.15190    0.65508    0.05750   1.00
H2       0.13769    0.63115    0.01234   1.00
C2       0.24790    0.75149    0.10395   1.00
C3       0.25774    0.71679    0.08403   1.00
O2       0.25719    0.68143    0.10326   1.00
C3       0.24077    0.78556    0.08174   1.00
H1       0.23417    0.81282    0.09615   1.00
C3a      0.25922    0.71663    0.04287   1.00
H1       0.26460    0.68933    0.02798   1.00
C3b      0.24105    0.78500    0.04078   1.00
C4       0.25023    0.75035    0.02100   1.00
O_3      0.18004    0.73786    -0.02167   1.00
C5       0.29552    0.66981    0.11280   1.00
H2       0.31394    0.66673    0.08609   1.00
C5       0.29248    0.63026    0.13334   1.00
H2       0.30959    0.69132    0.13274   1.00
H2       0.28865    0.60721    0.11077   1.00
H2       0.26519    0.63055    0.15101   1.00
C5       0.32809    0.62119    0.15931   1.00
H2       0.35529    0.62407    0.14189   1.00
H2       0.32636    0.59096    0.17109   1.00
H2       0.32946    0.64119    0.18506   1.00
C5       0.13579    0.69517    0.00980   1.00
H2       0.11209    0.69852    -0.01218   1.00
H2       0.13316    0.72015    0.03045   1.00
C5       0.13170    0.65631    0.03197   1.00
H2       0.10149    0.65320    0.04334   1.00
C5       0.86739    0.20150    0.63227   1.00
H2       0.86851    0.23005    0.64755   1.00
H2       0.89184    0.20187    0.61099   1.00
C5       0.87305    0.16815    0.66219   1.00
H2       0.90455    0.16390    0.66890   1.00
H2       0.86089    0.14044    0.65040   1.00
O_3      0.73455    0.18095    0.48000   1.00
C4       0.74996    0.25044    0.52100   1.00
C3c      0.78418    0.24344    0.54243   1.00
H1       0.81129    0.23801    0.52725   1.00
C3d      0.71506    0.25801    0.54135   1.00
C3       0.78395    0.24277    0.58354   1.00
O2       0.81929    0.24049    0.60248   1.00
C3       0.71457    0.25663    0.58227   1.00
H1       0.68684    0.26124    0.59657   1.00
C2       0.74882    0.24917    0.60439   1.00
C5       0.69440    0.17180    0.47879   1.00
H2       0.68367    0.16753    0.44838   1.00
H2       0.67660    0.19528    0.49266   1.00
C5       0.68856    0.13400    0.50122   1.00
H2       0.70029    0.13792    0.53129   1.00
H2       0.70617    0.11070    0.48691   1.00
C5       0.64530    0.12260    0.50254   1.00
H2       0.63334    0.11891    0.47260   1.00
H2       0.62790    0.14522    0.51803   1.00
H2       0.64171    0.09447    0.51830   1.00
C5       0.67489    0.30159    0.51105   1.00
C5       0.82826    0.20106    0.61070   1.00
H2       0.69830    0.31150    0.49088   1.00
H2       0.67462    0.32109    0.53712   1.00
H2       0.83083    0.18414    0.58300   1.00
H2       0.80539    0.18658    0.62895   1.00
H2       0.85848    0.17510    0.69055   1.00
H2       0.65190    0.34492    0.44250   1.00
H2       0.63769    0.36885    0.48766   1.00
C2       0.74790    0.24851    0.39605   1.00
C3       0.75774    0.28321    0.41597   1.00
O2       0.75719    0.31857    0.39674   1.00
C3       0.74077    0.21444    0.41826   1.00
H1       0.73417    0.18718    0.40385   1.00
C3a      0.75922    0.28337    0.45713   1.00
H1       0.76460    0.31067    0.47202   1.00
C3b      0.74105    0.21500    0.45922   1.00
C4       0.75023    0.24965    0.47900   1.00
O_3      0.68004    0.26214    0.52167   1.00
C5       0.79552    0.33019    0.38720   1.00
H2       0.81394    0.33327    0.41391   1.00
C5       0.79248    0.36974    0.36666   1.00
H2       0.80959    0.30868    0.36726   1.00
H2       0.78865    0.39279    0.38923   1.00
H2       0.76519    0.36945    0.34899   1.00
C5       0.82809    0.37881    0.34069   1.00
H2       0.85529    0.37593    0.35811   1.00
H2       0.82636    0.40904    0.32891   1.00
H2       0.82946    0.35881    0.31494   1.00
C5       0.63579    0.30483    0.49020   1.00
H2       0.61209    0.30148    0.51218   1.00
H2       0.63316    0.27985    0.46955   1.00
C5       0.63170    0.34369    0.46803   1.00
H2       0.60149    0.34680    0.45666   1.00
C5       0.70150    0.63227    0.36739   1.00
H2       0.73005    0.64755    0.36851   1.00
H2       0.70187    0.61099    0.39184   1.00
C5       0.66815    0.66219    0.37305   1.00
H2       0.66390    0.66890    0.40455   1.00
H2       0.64044    0.65040    0.36089   1.00
O_3      0.68095    0.48000    0.23455   1.00
C4       0.75044    0.52100    0.24996   1.00
C3c      0.74344    0.54243    0.28418   1.00
H1       0.73801    0.52725    0.31129   1.00
C3d      0.75801    0.54135    0.21506   1.00
C3       0.74277    0.58354    0.28395   1.00
O2       0.74049    0.60248    0.31929   1.00
C3       0.75663    0.58227    0.21457   1.00
H1       0.76124    0.59657    0.18684   1.00
C2       0.74917    0.60439    0.24882   1.00
C5       0.67180    0.47879    0.19440   1.00
H2       0.66753    0.44838    0.18367   1.00
H2       0.69528    0.49266    0.17660   1.00
C5       0.63400    0.50122    0.18856   1.00
H2       0.63792    0.53129    0.20029   1.00
H2       0.61070    0.48691    0.20617   1.00
C5       0.62260    0.50254    0.14530   1.00
H2       0.61891    0.47260    0.13334   1.00
H2       0.64522    0.51803    0.12790   1.00
H2       0.59447    0.51830    0.14171   1.00
C5       0.80159    0.51105    0.17489   1.00
C5       0.70106    0.61070    0.32826   1.00
H2       0.81150    0.49088    0.19830   1.00
H2       0.82109    0.53712    0.17462   1.00
H2       0.68414    0.58300    0.33083   1.00
H2       0.68658    0.62895    0.30539   1.00
H2       0.67510    0.69055    0.35848   1.00
H2       0.84492    0.44250    0.15190   1.00
H2       0.86885    0.48766    0.13769   1.00
C2       0.74851    0.39605    0.24790   1.00
C3       0.78321    0.41597    0.25774   1.00
O2       0.81857    0.39674    0.25719   1.00
C3       0.71444    0.41826    0.24077   1.00
H1       0.68718    0.40385    0.23417   1.00
C3a      0.78337    0.45713    0.25922   1.00
H1       0.81067    0.47202    0.26460   1.00
C3b      0.71500    0.45922    0.24105   1.00
C4       0.74965    0.47900    0.25023   1.00
O_3      0.76214    0.52167    0.18004   1.00
C5       0.83019    0.38720    0.29552   1.00
H2       0.83327    0.41391    0.31394   1.00
C5       0.86974    0.36666    0.29248   1.00
H2       0.80868    0.36726    0.30959   1.00
H2       0.89279    0.38923    0.28865   1.00
H2       0.86945    0.34899    0.26519   1.00
C5       0.87881    0.34069    0.32809   1.00
H2       0.87593    0.35811    0.35529   1.00
H2       0.90904    0.32891    0.32636   1.00
H2       0.85881    0.31494    0.32946   1.00
C5       0.80483    0.49020    0.13579   1.00
H2       0.80148    0.51218    0.11209   1.00
H2       0.77985    0.46955    0.13316   1.00
C5       0.84369    0.46803    0.13170   1.00
H2       0.84680    0.45666    0.10149   1.00
C5       0.36773    0.36739    0.29850   1.00
H2       0.35245    0.36851    0.26995   1.00
H2       0.38901    0.39184    0.29813   1.00
C5       0.33781    0.37305    0.33185   1.00
H2       0.33110    0.40455    0.33610   1.00
H2       0.34960    0.36089    0.35956   1.00
O_3      0.52000    0.23455    0.31905   1.00
C4       0.47900    0.24996    0.24956   1.00
C3c      0.45757    0.28418    0.25656   1.00
H1       0.47275    0.31129    0.26199   1.00
C3d      0.45865    0.21506    0.24199   1.00
C3       0.41646    0.28395    0.25723   1.00
O2       0.39752    0.31929    0.25951   1.00
C3       0.41773    0.21457    0.24337   1.00
H1       0.40343    0.18684    0.23876   1.00
C2       0.39561    0.24882    0.25083   1.00
C5       0.52121    0.19440    0.32820   1.00
H2       0.55162    0.18367    0.33247   1.00
H2       0.50734    0.17660    0.30472   1.00
C5       0.49878    0.18856    0.36600   1.00
H2       0.46871    0.20029    0.36208   1.00
H2       0.51309    0.20617    0.38930   1.00
C5       0.49746    0.14530    0.37740   1.00
H2       0.52740    0.13334    0.38109   1.00
H2       0.48197    0.12790    0.35478   1.00
H2       0.48170    0.14171    0.40553   1.00
C5       0.48895    0.17489    0.19841   1.00
C5       0.38930    0.32826    0.29894   1.00
H2       0.50912    0.19830    0.18850   1.00
H2       0.46288    0.17462    0.17891   1.00
H2       0.41700    0.33083    0.31586   1.00
H2       0.37105    0.30539    0.31342   1.00
H2       0.30945    0.35848    0.32490   1.00
H2       0.55750    0.15190    0.15508   1.00
H2       0.51234    0.13769    0.13115   1.00
C2       0.60395    0.24790    0.25149   1.00
C3       0.58403    0.25774    0.21679   1.00
O2       0.60326    0.25719    0.18143   1.00
C3       0.58174    0.24077    0.28556   1.00
H1       0.59615    0.23417    0.31282   1.00
C3a      0.54287    0.25922    0.21663   1.00
H1       0.52798    0.26460    0.18933   1.00
C3b      0.54078    0.24105    0.28500   1.00
C4       0.52100    0.25023    0.25035   1.00
O_3      0.47833    0.18004    0.23786   1.00
C5       0.61280    0.29552    0.16981   1.00
H2       0.58609    0.31394    0.16673   1.00
C5       0.63334    0.29248    0.13026   1.00
H2       0.63274    0.30959    0.19132   1.00
H2       0.61077    0.28865    0.10721   1.00
H2       0.65101    0.26519    0.13055   1.00
C5       0.65931    0.32809    0.12119   1.00
H2       0.64189    0.35529    0.12407   1.00
H2       0.67109    0.32636    0.09096   1.00
H2       0.68506    0.32946    0.14119   1.00
C5       0.50980    0.13579    0.19517   1.00
H2       0.48782    0.11209    0.19852   1.00
H2       0.53045    0.13316    0.22015   1.00
C5       0.53197    0.13170    0.15631   1.00
H2       0.54334    0.10149    0.15320   1.00
C5       1.13227    0.36739    0.20150   1.00
H2       1.14755    0.36851    0.23005   1.00
H2       1.11099    0.39184    0.20187   1.00
C5       1.16219    0.37305    0.16815   1.00
H2       1.16890    0.40455    0.16390   1.00
H2       1.15040    0.36089    0.14044   1.00
O_3      0.98000    0.23455    0.18095   1.00
C4       1.02100    0.24996    0.25044   1.00
C3c      1.04243    0.28418    0.24344   1.00
H1       1.02725    0.31129    0.23801   1.00
C3d      1.04135    0.21506    0.25801   1.00
C3       1.08354    0.28395    0.24277   1.00
O2       1.10248    0.31929    0.24049   1.00
C3       1.08227    0.21457    0.25663   1.00
H1       1.09657    0.18684    0.26124   1.00
C2       1.10439    0.24882    0.24917   1.00
C5       0.97879    0.19440    0.17180   1.00
H2       0.94838    0.18367    0.16753   1.00
H2       0.99266    0.17660    0.19528   1.00
C5       1.00122    0.18856    0.13400   1.00
H2       1.03129    0.20029    0.13792   1.00
H2       0.98691    0.20617    0.11070   1.00
C5       1.00254    0.14530    0.12260   1.00
H2       0.97260    0.13334    0.11891   1.00
H2       1.01803    0.12790    0.14522   1.00
H2       1.01830    0.14171    0.09447   1.00
C5       1.01105    0.17489    0.30159   1.00
C5       1.11070    0.32826    0.20106   1.00
H2       0.99088    0.19830    0.31150   1.00
H2       1.03712    0.17462    0.32109   1.00
H2       1.08300    0.33083    0.18414   1.00
H2       1.12895    0.30539    0.18658   1.00
H2       1.19055    0.35848    0.17510   1.00
H2       0.94250    0.15190    0.34492   1.00
H2       0.98766    0.13769    0.36885   1.00
C2       0.89605    0.24790    0.24851   1.00
C3       0.91597    0.25774    0.28321   1.00
O2       0.89674    0.25719    0.31857   1.00
C3       0.91826    0.24077    0.21444   1.00
H1       0.90385    0.23417    0.18718   1.00
C3a      0.95713    0.25922    0.28337   1.00
H1       0.97202    0.26460    0.31067   1.00
C3b      0.95922    0.24105    0.21500   1.00
C4       0.97900    0.25023    0.24965   1.00
O_3      1.02167    0.18004    0.26214   1.00
C5       0.88720    0.29552    0.33019   1.00
H2       0.91391    0.31394    0.33327   1.00
C5       0.86666    0.29248    0.36974   1.00
H2       0.86726    0.30959    0.30868   1.00
H2       0.88923    0.28865    0.39279   1.00
H2       0.84899    0.26519    0.36945   1.00
C5       0.84069    0.32809    0.37881   1.00
H2       0.85811    0.35529    0.37593   1.00
H2       0.82891    0.32636    0.40904   1.00
H2       0.81494    0.32946    0.35881   1.00
C5       0.99020    0.13579    0.30483   1.00
H2       1.01218    0.11209    0.30148   1.00
H2       0.96955    0.13316    0.27985   1.00
C5       0.96803    0.13170    0.34369   1.00
H2       0.95666    0.10149    0.34680   1.00
C5       0.79850    -0.13227   0.36739   1.00
H2       0.76995    -0.14755   0.36851   1.00
H2       0.79813    -0.11099   0.39184   1.00
C5       0.83185    -0.16219   0.37305   1.00
H2       0.83610    -0.16890   0.40455   1.00
H2       0.85956    -0.15040   0.36089   1.00
O_3      0.81905    0.02000    0.23455   1.00
C4       0.74956    -0.02100   0.24996   1.00
C3c      0.75656    -0.04243   0.28418   1.00
H1       0.76199    -0.02725   0.31129   1.00
C3d      0.74199    -0.04135   0.21506   1.00
C3       0.75723    -0.08354   0.28395   1.00
O2       0.75951    -0.10248   0.31929   1.00
C3       0.74337    -0.08227   0.21457   1.00
H1       0.73876    -0.09657   0.18684   1.00
C2       0.75083    -0.10439   0.24882   1.00
C5       0.82820    0.02121    0.19440   1.00
H2       0.83247    0.05162    0.18367   1.00
H2       0.80472    0.00734    0.17660   1.00
C5       0.86600    -0.00122   0.18856   1.00
H2       0.86208    -0.03129   0.20029   1.00
H2       0.88930    0.01309    0.20617   1.00
C5       0.87740    -0.00254   0.14530   1.00
H2       0.88109    0.02740    0.13334   1.00
H2       0.85478    -0.01803   0.12790   1.00
H2       0.90553    -0.01830   0.14171   1.00
C5       0.69841    -0.01105   0.17489   1.00
C5       0.79894    -0.11070   0.32826   1.00
H2       0.68850    0.00912    0.19830   1.00
H2       0.67891    -0.03712   0.17462   1.00
H2       0.81586    -0.08300   0.33083   1.00
H2       0.81342    -0.12895   0.30539   1.00
H2       0.82490    -0.19055   0.35848   1.00
H2       0.65508    0.05750    0.15190   1.00
H2       0.63115    0.01234    0.13769   1.00
C2       0.75149    0.10395    0.24790   1.00
C3       0.71679    0.08403    0.25774   1.00
O2       0.68143    0.10326    0.25719   1.00
C3       0.78556    0.08174    0.24077   1.00
H1       0.81282    0.09615    0.23417   1.00
C3a      0.71663    0.04287    0.25922   1.00
H1       0.68933    0.02798    0.26460   1.00
C3b      0.78500    0.04078    0.24105   1.00
C4       0.75035    0.02100    0.25023   1.00
O_3      0.73786    -0.02167   0.18004   1.00
C5       0.66981    0.11280    0.29552   1.00
H2       0.66673    0.08609    0.31394   1.00
C5       0.63026    0.13334    0.29248   1.00
H2       0.69132    0.13274    0.30959   1.00
H2       0.60721    0.11077    0.28865   1.00
H2       0.63055    0.15101    0.26519   1.00
C5       0.62119    0.15931    0.32809   1.00
H2       0.62407    0.14189    0.35529   1.00
H2       0.59096    0.17109    0.32636   1.00
H2       0.64119    0.18506    0.32946   1.00
C5       0.69517    0.00980    0.13579   1.00
H2       0.69852    -0.01218   0.11209   1.00
H2       0.72015    0.03045    0.13316   1.00
C5       0.65631    0.03197    0.13170   1.00
H2       0.65320    0.04334    0.10149   1.00
C5       0.86739    0.29850    -0.13227   1.00
H2       0.86851    0.26995    -0.14755   1.00
H2       0.89184    0.29813    -0.11099   1.00
C5       0.87305    0.33185    -0.16219   1.00
H2       0.90455    0.33610    -0.16890   1.00
H2       0.86089    0.35956    -0.15040   1.00
O_3      0.73455    0.31905    0.02000   1.00
C4       0.74996    0.24956    -0.02100   1.00
C3c      0.78418    0.25656    -0.04243   1.00
H1       0.81129    0.26199    -0.02725   1.00
C3d      0.71506    0.24199    -0.04135   1.00
C3       0.78395    0.25723    -0.08354   1.00
O2       0.81929    0.25951    -0.10248   1.00
C3       0.71457    0.24337    -0.08227   1.00
H1       0.68684    0.23876    -0.09657   1.00
C2       0.74882    0.25083    -0.10439   1.00
C5       0.69440    0.32820    0.02121   1.00
H2       0.68367    0.33247    0.05162   1.00
H2       0.67660    0.30472    0.00734   1.00
C5       0.68856    0.36600    -0.00122   1.00
H2       0.70029    0.36208    -0.03129   1.00
H2       0.70617    0.38930    0.01309   1.00
C5       0.64530    0.37740    -0.00254   1.00
H2       0.63334    0.38109    0.02740   1.00
H2       0.62790    0.35478    -0.01803   1.00
H2       0.64171    0.40553    -0.01830   1.00
C5       0.67489    0.19841    -0.01105   1.00
C5       0.82826    0.29894    -0.11070   1.00
H2       0.69830    0.18850    0.00912   1.00
H2       0.67462    0.17891    -0.03712   1.00
H2       0.83083    0.31586    -0.08300   1.00
H2       0.80539    0.31342    -0.12895   1.00
H2       0.85848    0.32490    -0.19055   1.00
H2       0.65190    0.15508    0.05750   1.00
H2       0.63769    0.13115    0.01234   1.00
C2       0.74790    0.25149    0.10395   1.00
C3       0.75774    0.21679    0.08403   1.00
O2       0.75719    0.18143    0.10326   1.00
C3       0.74077    0.28556    0.08174   1.00
H1       0.73417    0.31282    0.09615   1.00
C3a      0.75922    0.21663    0.04287   1.00
H1       0.76460    0.18933    0.02798   1.00
C3b      0.74105    0.28500    0.04078   1.00
C4       0.75023    0.25035    0.02100   1.00
O_3      0.68004    0.23786    -0.02167   1.00
C5       0.79552    0.16981    0.11280   1.00
H2       0.81394    0.16673    0.08609   1.00
C5       0.79248    0.13026    0.13334   1.00
H2       0.80959    0.19132    0.13274   1.00
H2       0.78865    0.10721    0.11077   1.00
H2       0.76519    0.13055    0.15101   1.00
C5       0.82809    0.12119    0.15931   1.00
H2       0.85529    0.12407    0.14189   1.00
H2       0.82636    0.09096    0.17109   1.00
H2       0.82946    0.14119    0.18506   1.00
C5       0.63579    0.19517    0.00980   1.00
H2       0.61209    0.19852    -0.01218   1.00
H2       0.63316    0.22015    0.03045   1.00
C5       0.63170    0.15631    0.03197   1.00
H2       0.60149    0.15320    0.04334   1.00
C5       1.03239    0.86650    1.29727   1.00
H2       1.03351    0.89505    1.31255   1.00
H2       1.05684    0.86687    1.27599   1.00
C5       1.03805    0.83315    1.32719   1.00
H2       1.06955    0.82890    1.33390   1.00
H2       1.02589    0.80544    1.31540   1.00
O_3      0.89955    0.84595    1.14500   1.00
C4       0.91496    0.91544    1.18600   1.00
C3c      0.94918    0.90844    1.20743   1.00
H1       0.97629    0.90301    1.19225   1.00
C3d      0.88006    0.92301    1.20635   1.00
C3       0.94895    0.90777    1.24854   1.00
O2       0.98429    0.90549    1.26748   1.00
C3       0.87957    0.92163    1.24727   1.00
H1       0.85184    0.92624    1.26157   1.00
C2       0.91382    0.91417    1.26939   1.00
C5       0.85940    0.83680    1.14379   1.00
H2       0.84867    0.83253    1.11338   1.00
H2       0.84160    0.86028    1.15766   1.00
C5       0.85356    0.79900    1.16622   1.00
H2       0.86529    0.80292    1.19629   1.00
H2       0.87117    0.77570    1.15191   1.00
C5       0.81030    0.78760    1.16754   1.00
H2       0.79834    0.78391    1.13760   1.00
H2       0.79290    0.81022    1.18303   1.00
H2       0.80671    0.75947    1.18330   1.00
C5       0.83989    0.96659    1.17605   1.00
C5       0.99326    0.86606    1.27570   1.00
H2       0.86330    0.97650    1.15588   1.00
H2       0.83962    0.98609    1.20212   1.00
H2       0.99583    0.84914    1.24800   1.00
H2       0.97039    0.85158    1.29395   1.00
H2       1.02348    0.84010    1.35555   1.00
H2       0.81690    1.00992    1.10750   1.00
H2       0.80269    1.03385    1.15266   1.00
C2       0.91290    0.91351    1.06105   1.00
C3       0.92274    0.94821    1.08097   1.00
O2       0.92219    0.98357    1.06174   1.00
C3       0.90577    0.87944    1.08326   1.00
H1       0.89917    0.85218    1.06885   1.00
C3a      0.92422    0.94837    1.12213   1.00
H1       0.92960    0.97567    1.13702   1.00
C3b      0.90605    0.88000    1.12422   1.00
C4       0.91523    0.91465    1.14400   1.00
O_3      0.84504    0.92714    1.18667   1.00
C5       0.96052    0.99519    1.05220   1.00
H2       0.97894    0.99827    1.07891   1.00
C5       0.95748    1.03474    1.03166   1.00
H2       0.97459    0.97368    1.03226   1.00
H2       0.95365    1.05779    1.05423   1.00
H2       0.93019    1.03445    1.01399   1.00
C5       0.99309    1.04381    1.00569   1.00
H2       1.02029    1.04093    1.02311   1.00
H2       0.99136    1.07404    0.99391   1.00
H2       0.99446    1.02381    0.97994   1.00
C5       0.80079    0.96983    1.15520   1.00
H2       0.77709    0.96648    1.17718   1.00
H2       0.79816    0.94485    1.13455   1.00
C5       0.79670    1.00869    1.13303   1.00
H2       0.76649    1.01180    1.12166   1.00
C5       0.86650    1.29727    1.03239   1.00
H2       0.89505    1.31255    1.03351   1.00
H2       0.86687    1.27599    1.05684   1.00
C5       0.83315    1.32719    1.03805   1.00
H2       0.82890    1.33390    1.06955   1.00
H2       0.80544    1.31540    1.02589   1.00
O_3      0.84595    1.14500    0.89955   1.00
C4       0.91544    1.18600    0.91496   1.00
C3c      0.90844    1.20743    0.94918   1.00
H1       0.90301    1.19225    0.97629   1.00
C3d      0.92301    1.20635    0.88006   1.00
C3       0.90777    1.24854    0.94895   1.00
O2       0.90549    1.26748    0.98429   1.00
C3       0.92163    1.24727    0.87957   1.00
H1       0.92624    1.26157    0.85184   1.00
C2       0.91417    1.26939    0.91382   1.00
C5       0.83680    1.14379    0.85940   1.00
H2       0.83253    1.11338    0.84867   1.00
H2       0.86028    1.15766    0.84160   1.00
C5       0.79900    1.16622    0.85356   1.00
H2       0.80292    1.19629    0.86529   1.00
H2       0.77570    1.15191    0.87117   1.00
C5       0.78760    1.16754    0.81030   1.00
H2       0.78391    1.13760    0.79834   1.00
H2       0.81022    1.18303    0.79290   1.00
H2       0.75947    1.18330    0.80671   1.00
C5       0.96659    1.17605    0.83989   1.00
C5       0.86606    1.27570    0.99326   1.00
H2       0.97650    1.15588    0.86330   1.00
H2       0.98609    1.20212    0.83962   1.00
H2       0.84914    1.24800    0.99583   1.00
H2       0.85158    1.29395    0.97039   1.00
H2       0.84010    1.35555    1.02348   1.00
H2       1.00992    1.10750    0.81690   1.00
H2       1.03385    1.15266    0.80269   1.00
C2       0.91351    1.06105    0.91290   1.00
C3       0.94821    1.08097    0.92274   1.00
O2       0.98357    1.06174    0.92219   1.00
C3       0.87944    1.08326    0.90577   1.00
H1       0.85218    1.06885    0.89917   1.00
C3a      0.94837    1.12213    0.92422   1.00
H1       0.97567    1.13702    0.92960   1.00
C3b      0.88000    1.12422    0.90605   1.00
C4       0.91465    1.14400    0.91523   1.00
O_3      0.92714    1.18667    0.84504   1.00
C5       0.99519    1.05220    0.96052   1.00
H2       0.99827    1.07891    0.97894   1.00
C5       1.03474    1.03166    0.95748   1.00
H2       0.97368    1.03226    0.97459   1.00
H2       1.05779    1.05423    0.95365   1.00
H2       1.03445    1.01399    0.93019   1.00
C5       1.04381    1.00569    0.99309   1.00
H2       1.04093    1.02311    1.02029   1.00
H2       1.07404    0.99391    0.99136   1.00
H2       1.02381    0.97994    0.99446   1.00
C5       0.96983    1.15520    0.80079   1.00
H2       0.96648    1.17718    0.77709   1.00
H2       0.94485    1.13455    0.79816   1.00
C5       1.00869    1.13303    0.79670   1.00
H2       1.01180    1.12166    0.76649   1.00
C5       0.53273    1.03239    0.96350   1.00
H2       0.51745    1.03351    0.93495   1.00
H2       0.55401    1.05684    0.96313   1.00
C5       0.50281    1.03805    0.99685   1.00
H2       0.49610    1.06955    1.00110   1.00
H2       0.51460    1.02589    1.02456   1.00
O_3      0.68500    0.89955    0.98405   1.00
C4       0.64400    0.91496    0.91456   1.00
C3c      0.62257    0.94918    0.92156   1.00
H1       0.63775    0.97629    0.92699   1.00
C3d      0.62365    0.88006    0.90699   1.00
C3       0.58146    0.94895    0.92223   1.00
O2       0.56252    0.98429    0.92451   1.00
C3       0.58273    0.87957    0.90837   1.00
H1       0.56843    0.85184    0.90376   1.00
C2       0.56061    0.91382    0.91583   1.00
C5       0.68621    0.85940    0.99320   1.00
H2       0.71662    0.84867    0.99747   1.00
H2       0.67234    0.84160    0.96972   1.00
C5       0.66378    0.85356    1.03100   1.00
H2       0.63371    0.86529    1.02708   1.00
H2       0.67809    0.87117    1.05430   1.00
C5       0.66246    0.81030    1.04240   1.00
H2       0.69240    0.79834    1.04609   1.00
H2       0.64697    0.79290    1.01978   1.00
H2       0.64670    0.80671    1.07053   1.00
C5       0.65395    0.83989    0.86341   1.00
C5       0.55430    0.99326    0.96394   1.00
H2       0.67412    0.86330    0.85350   1.00
H2       0.62788    0.83962    0.84391   1.00
H2       0.58200    0.99583    0.98086   1.00
H2       0.53605    0.97039    0.97842   1.00
H2       0.47445    1.02348    0.98990   1.00
H2       0.72250    0.81690    0.82008   1.00
H2       0.67734    0.80269    0.79615   1.00
C2       0.76895    0.91290    0.91649   1.00
C3       0.74903    0.92274    0.88179   1.00
O2       0.76826    0.92219    0.84643   1.00
C3       0.74674    0.90577    0.95056   1.00
H1       0.76115    0.89917    0.97782   1.00
C3a      0.70787    0.92422    0.88163   1.00
H1       0.69298    0.92960    0.85433   1.00
C3b      0.70578    0.90605    0.95000   1.00
C4       0.68600    0.91523    0.91535   1.00
O_3      0.64333    0.84504    0.90286   1.00
C5       0.77780    0.96052    0.83481   1.00
H2       0.75109    0.97894    0.83173   1.00
C5       0.79834    0.95748    0.79526   1.00
H2       0.79774    0.97459    0.85632   1.00
H2       0.77577    0.95365    0.77221   1.00
H2       0.81601    0.93019    0.79555   1.00
C5       0.82431    0.99309    0.78619   1.00
H2       0.80689    1.02029    0.78907   1.00
H2       0.83609    0.99136    0.75596   1.00
H2       0.85006    0.99446    0.80619   1.00
C5       0.67480    0.80079    0.86017   1.00
H2       0.65282    0.77709    0.86352   1.00
H2       0.69545    0.79816    0.88515   1.00
C5       0.69697    0.79670    0.82131   1.00
H2       0.70834    0.76649    0.81820   1.00
C5       1.29727    1.03239    0.86650   1.00
H2       1.31255    1.03351    0.89505   1.00
H2       1.27599    1.05684    0.86687   1.00
C5       1.32719    1.03805    0.83315   1.00
H2       1.33390    1.06955    0.82890   1.00
H2       1.31540    1.02589    0.80544   1.00
O_3      1.14500    0.89955    0.84595   1.00
C4       1.18600    0.91496    0.91544   1.00
C3c      1.20743    0.94918    0.90844   1.00
H1       1.19225    0.97629    0.90301   1.00
C3d      1.20635    0.88006    0.92301   1.00
C3       1.24854    0.94895    0.90777   1.00
O2       1.26748    0.98429    0.90549   1.00
C3       1.24727    0.87957    0.92163   1.00
H1       1.26157    0.85184    0.92624   1.00
C2       1.26939    0.91382    0.91417   1.00
C5       1.14379    0.85940    0.83680   1.00
H2       1.11338    0.84867    0.83253   1.00
H2       1.15766    0.84160    0.86028   1.00
C5       1.16622    0.85356    0.79900   1.00
H2       1.19629    0.86529    0.80292   1.00
H2       1.15191    0.87117    0.77570   1.00
C5       1.16754    0.81030    0.78760   1.00
H2       1.13760    0.79834    0.78391   1.00
H2       1.18303    0.79290    0.81022   1.00
H2       1.18330    0.80671    0.75947   1.00
C5       1.17605    0.83989    0.96659   1.00
C5       1.27570    0.99326    0.86606   1.00
H2       1.15588    0.86330    0.97650   1.00
H2       1.20212    0.83962    0.98609   1.00
H2       1.24800    0.99583    0.84914   1.00
H2       1.29395    0.97039    0.85158   1.00
H2       1.35555    1.02348    0.84010   1.00
H2       1.10750    0.81690    1.00992   1.00
H2       1.15266    0.80269    1.03385   1.00
C2       1.06105    0.91290    0.91351   1.00
C3       1.08097    0.92274    0.94821   1.00
O2       1.06174    0.92219    0.98357   1.00
C3       1.08326    0.90577    0.87944   1.00
H1       1.06885    0.89917    0.85218   1.00
C3a      1.12213    0.92422    0.94837   1.00
H1       1.13702    0.92960    0.97567   1.00
C3b      1.12422    0.90605    0.88000   1.00
C4       1.14400    0.91523    0.91465   1.00
O_3      1.18667    0.84504    0.92714   1.00
C5       1.05220    0.96052    0.99519   1.00
H2       1.07891    0.97894    0.99827   1.00
C5       1.03166    0.95748    1.03474   1.00
H2       1.03226    0.97459    0.97368   1.00
H2       1.05423    0.95365    1.05779   1.00
H2       1.01399    0.93019    1.03445   1.00
C5       1.00569    0.99309    1.04381   1.00
H2       1.02311    1.02029    1.04093   1.00
H2       0.99391    0.99136    1.07404   1.00
H2       0.97994    0.99446    1.02381   1.00
C5       1.15520    0.80079    0.96983   1.00
H2       1.17718    0.77709    0.96648   1.00
H2       1.13455    0.79816    0.94485   1.00
C5       1.13303    0.79670    1.00869   1.00
H2       1.12166    0.76649    1.01180   1.00
C5       0.96350    0.53273    1.03239   1.00
H2       0.93495    0.51745    1.03351   1.00
H2       0.96313    0.55401    1.05684   1.00
C5       0.99685    0.50281    1.03805   1.00
H2       1.00110    0.49610    1.06955   1.00
H2       1.02456    0.51460    1.02589   1.00
O_3      0.98405    0.68500    0.89955   1.00
C4       0.91456    0.64400    0.91496   1.00
C3c      0.92156    0.62257    0.94918   1.00
H1       0.92699    0.63775    0.97629   1.00
C3d      0.90699    0.62365    0.88006   1.00
C3       0.92223    0.58146    0.94895   1.00
O2       0.92451    0.56252    0.98429   1.00
C3       0.90837    0.58273    0.87957   1.00
H1       0.90376    0.56843    0.85184   1.00
C2       0.91583    0.56061    0.91382   1.00
C5       0.99320    0.68621    0.85940   1.00
H2       0.99747    0.71662    0.84867   1.00
H2       0.96972    0.67234    0.84160   1.00
C5       1.03100    0.66378    0.85356   1.00
H2       1.02708    0.63371    0.86529   1.00
H2       1.05430    0.67809    0.87117   1.00
C5       1.04240    0.66246    0.81030   1.00
H2       1.04609    0.69240    0.79834   1.00
H2       1.01978    0.64697    0.79290   1.00
H2       1.07053    0.64670    0.80671   1.00
C5       0.86341    0.65395    0.83989   1.00
C5       0.96394    0.55430    0.99326   1.00
H2       0.85350    0.67412    0.86330   1.00
H2       0.84391    0.62788    0.83962   1.00
H2       0.98086    0.58200    0.99583   1.00
H2       0.97842    0.53605    0.97039   1.00
H2       0.98990    0.47445    1.02348   1.00
H2       0.82008    0.72250    0.81690   1.00
H2       0.79615    0.67734    0.80269   1.00
C2       0.91649    0.76895    0.91290   1.00
C3       0.88179    0.74903    0.92274   1.00
O2       0.84643    0.76826    0.92219   1.00
C3       0.95056    0.74674    0.90577   1.00
H1       0.97782    0.76115    0.89917   1.00
C3a      0.88163    0.70787    0.92422   1.00
H1       0.85433    0.69298    0.92960   1.00
C3b      0.95000    0.70578    0.90605   1.00
C4       0.91535    0.68600    0.91523   1.00
O_3      0.90286    0.64333    0.84504   1.00
C5       0.83481    0.77780    0.96052   1.00
H2       0.83173    0.75109    0.97894   1.00
C5       0.79526    0.79834    0.95748   1.00
H2       0.85632    0.79774    0.97459   1.00
H2       0.77221    0.77577    0.95365   1.00
H2       0.79555    0.81601    0.93019   1.00
C5       0.78619    0.82431    0.99309   1.00
H2       0.78907    0.80689    1.02029   1.00
H2       0.75596    0.83609    0.99136   1.00
H2       0.80619    0.85006    0.99446   1.00
C5       0.86017    0.67480    0.80079   1.00
H2       0.86352    0.65282    0.77709   1.00
H2       0.88515    0.69545    0.79816   1.00
C5       0.82131    0.69697    0.79670   1.00
H2       0.81820    0.70834    0.76649   1.00
C5       1.03239    0.96350    0.53273   1.00
H2       1.03351    0.93495    0.51745   1.00
H2       1.05684    0.96313    0.55401   1.00
C5       1.03805    0.99685    0.50281   1.00
H2       1.06955    1.00110    0.49610   1.00
H2       1.02589    1.02456    0.51460   1.00
O_3      0.89955    0.98405    0.68500   1.00
C4       0.91496    0.91456    0.64400   1.00
C3c      0.94918    0.92156    0.62257   1.00
H1       0.97629    0.92699    0.63775   1.00
C3d      0.88006    0.90699    0.62365   1.00
C3       0.94895    0.92223    0.58146   1.00
O2       0.98429    0.92451    0.56252   1.00
C3       0.87957    0.90837    0.58273   1.00
H1       0.85184    0.90376    0.56843   1.00
C2       0.91382    0.91583    0.56061   1.00
C5       0.85940    0.99320    0.68621   1.00
H2       0.84867    0.99747    0.71662   1.00
H2       0.84160    0.96972    0.67234   1.00
C5       0.85356    1.03100    0.66378   1.00
H2       0.86529    1.02708    0.63371   1.00
H2       0.87117    1.05430    0.67809   1.00
C5       0.81030    1.04240    0.66246   1.00
H2       0.79834    1.04609    0.69240   1.00
H2       0.79290    1.01978    0.64697   1.00
H2       0.80671    1.07053    0.64670   1.00
C5       0.83989    0.86341    0.65395   1.00
C5       0.99326    0.96394    0.55430   1.00
H2       0.86330    0.85350    0.67412   1.00
H2       0.83962    0.84391    0.62788   1.00
H2       0.99583    0.98086    0.58200   1.00
H2       0.97039    0.97842    0.53605   1.00
H2       1.02348    0.98990    0.47445   1.00
H2       0.81690    0.82008    0.72250   1.00
H2       0.80269    0.79615    0.67734   1.00
C2       0.91290    0.91649    0.76895   1.00
C3       0.92274    0.88179    0.74903   1.00
O2       0.92219    0.84643    0.76826   1.00
C3       0.90577    0.95056    0.74674   1.00
H1       0.89917    0.97782    0.76115   1.00
C3a      0.92422    0.88163    0.70787   1.00
H1       0.92960    0.85433    0.69298   1.00
C3b      0.90605    0.95000    0.70578   1.00
C4       0.91523    0.91535    0.68600   1.00
O_3      0.84504    0.90286    0.64333   1.00
C5       0.96052    0.83481    0.77780   1.00
H2       0.97894    0.83173    0.75109   1.00
C5       0.95748    0.79526    0.79834   1.00
H2       0.97459    0.85632    0.79774   1.00
H2       0.95365    0.77221    0.77577   1.00
H2       0.93019    0.79555    0.81601   1.00
C5       0.99309    0.78619    0.82431   1.00
H2       1.02029    0.78907    0.80689   1.00
H2       0.99136    0.75596    0.83609   1.00
H2       0.99446    0.80619    0.85006   1.00
C5       0.80079    0.86017    0.67480   1.00
H2       0.77709    0.86352    0.65282   1.00
H2       0.79816    0.88515    0.69545   1.00
C5       0.79670    0.82131    0.69697   1.00
H2       0.76649    0.81820    0.70834   1.00
C5       0.53239    0.36650    1.29727   1.00
H2       0.53351    0.39505    1.31255   1.00
H2       0.55684    0.36687    1.27599   1.00
C5       0.53805    0.33315    1.32719   1.00
H2       0.56955    0.32890    1.33390   1.00
H2       0.52589    0.30544    1.31540   1.00
O_3      0.39955    0.34595    1.14500   1.00
C4       0.41496    0.41544    1.18600   1.00
C3c      0.44918    0.40844    1.20743   1.00
H1       0.47629    0.40301    1.19225   1.00
C3d      0.38006    0.42301    1.20635   1.00
C3       0.44895    0.40777    1.24854   1.00
O2       0.48429    0.40549    1.26748   1.00
C3       0.37957    0.42163    1.24727   1.00
H1       0.35184    0.42624    1.26157   1.00
C2       0.41382    0.41417    1.26939   1.00
C5       0.35940    0.33680    1.14379   1.00
H2       0.34867    0.33253    1.11338   1.00
H2       0.34160    0.36028    1.15766   1.00
C5       0.35356    0.29900    1.16622   1.00
H2       0.36529    0.30292    1.19629   1.00
H2       0.37117    0.27570    1.15191   1.00
C5       0.31030    0.28760    1.16754   1.00
H2       0.29834    0.28391    1.13760   1.00
H2       0.29290    0.31022    1.18303   1.00
H2       0.30671    0.25947    1.18330   1.00
C5       0.33989    0.46659    1.17605   1.00
C5       0.49326    0.36606    1.27570   1.00
H2       0.36330    0.47650    1.15588   1.00
H2       0.33962    0.48609    1.20212   1.00
H2       0.49583    0.34914    1.24800   1.00
H2       0.47039    0.35158    1.29395   1.00
H2       0.52348    0.34010    1.35555   1.00
H2       0.31690    0.50992    1.10750   1.00
H2       0.30269    0.53385    1.15266   1.00
C2       0.41290    0.41351    1.06105   1.00
C3       0.42274    0.44821    1.08097   1.00
O2       0.42219    0.48357    1.06174   1.00
C3       0.40577    0.37944    1.08326   1.00
H1       0.39917    0.35218    1.06885   1.00
C3a      0.42422    0.44837    1.12213   1.00
H1       0.42960    0.47567    1.13702   1.00
C3b      0.40605    0.38000    1.12422   1.00
C4       0.41523    0.41465    1.14400   1.00
O_3      0.34504    0.42714    1.18667   1.00
C5       0.46052    0.49519    1.05220   1.00
H2       0.47894    0.49827    1.07891   1.00
C5       0.45748    0.53474    1.03166   1.00
H2       0.47459    0.47368    1.03226   1.00
H2       0.45365    0.55779    1.05423   1.00
H2       0.43019    0.53445    1.01399   1.00
C5       0.49309    0.54381    1.00569   1.00
H2       0.52029    0.54093    1.02311   1.00
H2       0.49136    0.57404    0.99391   1.00
H2       0.49446    0.52381    0.97994   1.00
C5       0.30079    0.46983    1.15520   1.00
H2       0.27709    0.46648    1.17718   1.00
H2       0.29816    0.44485    1.13455   1.00
C5       0.29670    0.50869    1.13303   1.00
H2       0.26649    0.51180    1.12166   1.00
C5       0.36650    0.79727    1.03239   1.00
H2       0.39505    0.81255    1.03351   1.00
H2       0.36687    0.77599    1.05684   1.00
C5       0.33315    0.82719    1.03805   1.00
H2       0.32890    0.83390    1.06955   1.00
H2       0.30544    0.81540    1.02589   1.00
O_3      0.34595    0.64500    0.89955   1.00
C4       0.41544    0.68600    0.91496   1.00
C3c      0.40844    0.70743    0.94918   1.00
H1       0.40301    0.69225    0.97629   1.00
C3d      0.42301    0.70635    0.88006   1.00
C3       0.40777    0.74854    0.94895   1.00
O2       0.40549    0.76748    0.98429   1.00
C3       0.42163    0.74727    0.87957   1.00
H1       0.42624    0.76157    0.85184   1.00
C2       0.41417    0.76939    0.91382   1.00
C5       0.33680    0.64379    0.85940   1.00
H2       0.33253    0.61338    0.84867   1.00
H2       0.36028    0.65766    0.84160   1.00
C5       0.29900    0.66622    0.85356   1.00
H2       0.30292    0.69629    0.86529   1.00
H2       0.27570    0.65191    0.87117   1.00
C5       0.28760    0.66754    0.81030   1.00
H2       0.28391    0.63760    0.79834   1.00
H2       0.31022    0.68303    0.79290   1.00
H2       0.25947    0.68330    0.80671   1.00
C5       0.46659    0.67605    0.83989   1.00
C5       0.36606    0.77570    0.99326   1.00
H2       0.47650    0.65588    0.86330   1.00
H2       0.48609    0.70212    0.83962   1.00
H2       0.34914    0.74800    0.99583   1.00
H2       0.35158    0.79395    0.97039   1.00
H2       0.34010    0.85555    1.02348   1.00
H2       0.50992    0.60750    0.81690   1.00
H2       0.53385    0.65266    0.80269   1.00
C2       0.41351    0.56105    0.91290   1.00
C3       0.44821    0.58097    0.92274   1.00
O2       0.48357    0.56174    0.92219   1.00
C3       0.37944    0.58326    0.90577   1.00
H1       0.35218    0.56885    0.89917   1.00
C3a      0.44837    0.62213    0.92422   1.00
H1       0.47567    0.63702    0.92960   1.00
C3b      0.38000    0.62422    0.90605   1.00
C4       0.41465    0.64400    0.91523   1.00
O_3      0.42714    0.68667    0.84504   1.00
C5       0.49519    0.55220    0.96052   1.00
H2       0.49827    0.57891    0.97894   1.00
C5       0.53474    0.53166    0.95748   1.00
H2       0.47368    0.53226    0.97459   1.00
H2       0.55779    0.55423    0.95365   1.00
H2       0.53445    0.51399    0.93019   1.00
C5       0.54381    0.50569    0.99309   1.00
H2       0.54093    0.52311    1.02029   1.00
H2       0.57404    0.49391    0.99136   1.00
H2       0.52381    0.47994    0.99446   1.00
C5       0.46983    0.65520    0.80079   1.00
H2       0.46648    0.67718    0.77709   1.00
H2       0.44485    0.63455    0.79816   1.00
C5       0.50869    0.63303    0.79670   1.00
H2       0.51180    0.62166    0.76649   1.00
C5       0.03273    0.53239    0.96350   1.00
H2       0.01745    0.53351    0.93495   1.00
H2       0.05401    0.55684    0.96313   1.00
C5       0.00281    0.53805    0.99685   1.00
H2       -0.00390   0.56955    1.00110   1.00
H2       0.01460    0.52589    1.02456   1.00
O_3      0.18500    0.39955    0.98405   1.00
C4       0.14400    0.41496    0.91456   1.00
C3c      0.12257    0.44918    0.92156   1.00
H1       0.13775    0.47629    0.92699   1.00
C3d      0.12365    0.38006    0.90699   1.00
C3       0.08146    0.44895    0.92223   1.00
O2       0.06252    0.48429    0.92451   1.00
C3       0.08273    0.37957    0.90837   1.00
H1       0.06843    0.35184    0.90376   1.00
C2       0.06061    0.41382    0.91583   1.00
C5       0.18621    0.35940    0.99320   1.00
H2       0.21662    0.34867    0.99747   1.00
H2       0.17234    0.34160    0.96972   1.00
C5       0.16378    0.35356    1.03100   1.00
H2       0.13371    0.36529    1.02708   1.00
H2       0.17809    0.37117    1.05430   1.00
C5       0.16246    0.31030    1.04240   1.00
H2       0.19240    0.29834    1.04609   1.00
H2       0.14697    0.29290    1.01978   1.00
H2       0.14670    0.30671    1.07053   1.00
C5       0.15395    0.33989    0.86341   1.00
C5       0.05430    0.49326    0.96394   1.00
H2       0.17412    0.36330    0.85350   1.00
H2       0.12788    0.33962    0.84391   1.00
H2       0.08200    0.49583    0.98086   1.00
H2       0.03605    0.47039    0.97842   1.00
H2       -0.02555   0.52348    0.98990   1.00
H2       0.22250    0.31690    0.82008   1.00
H2       0.17734    0.30269    0.79615   1.00
C2       0.26895    0.41290    0.91649   1.00
C3       0.24903    0.42274    0.88179   1.00
O2       0.26826    0.42219    0.84643   1.00
C3       0.24674    0.40577    0.95056   1.00
H1       0.26115    0.39917    0.97782   1.00
C3a      0.20787    0.42422    0.88163   1.00
H1       0.19298    0.42960    0.85433   1.00
C3b      0.20578    0.40605    0.95000   1.00
C4       0.18600    0.41523    0.91535   1.00
O_3      0.14333    0.34504    0.90286   1.00
C5       0.27780    0.46052    0.83481   1.00
H2       0.25109    0.47894    0.83173   1.00
C5       0.29834    0.45748    0.79526   1.00
H2       0.29774    0.47459    0.85632   1.00
H2       0.27577    0.45365    0.77221   1.00
H2       0.31601    0.43019    0.79555   1.00
C5       0.32431    0.49309    0.78619   1.00
H2       0.30689    0.52029    0.78907   1.00
H2       0.33609    0.49136    0.75596   1.00
H2       0.35006    0.49446    0.80619   1.00
C5       0.17480    0.30079    0.86017   1.00
H2       0.15282    0.27709    0.86352   1.00
H2       0.19545    0.29816    0.88515   1.00
C5       0.19697    0.29670    0.82131   1.00
H2       0.20834    0.26649    0.81820   1.00
C5       0.79727    0.53239    0.86650   1.00
H2       0.81255    0.53351    0.89505   1.00
H2       0.77599    0.55684    0.86687   1.00
C5       0.82719    0.53805    0.83315   1.00
H2       0.83390    0.56955    0.82890   1.00
H2       0.81540    0.52589    0.80544   1.00
O_3      0.64500    0.39955    0.84595   1.00
C4       0.68600    0.41496    0.91544   1.00
C3c      0.70743    0.44918    0.90844   1.00
H1       0.69225    0.47629    0.90301   1.00
C3d      0.70635    0.38006    0.92301   1.00
C3       0.74854    0.44895    0.90777   1.00
O2       0.76748    0.48429    0.90549   1.00
C3       0.74727    0.37957    0.92163   1.00
H1       0.76157    0.35184    0.92624   1.00
C2       0.76939    0.41382    0.91417   1.00
C5       0.64379    0.35940    0.83680   1.00
H2       0.61338    0.34867    0.83253   1.00
H2       0.65766    0.34160    0.86028   1.00
C5       0.66622    0.35356    0.79900   1.00
H2       0.69629    0.36529    0.80292   1.00
H2       0.65191    0.37117    0.77570   1.00
C5       0.66754    0.31030    0.78760   1.00
H2       0.63760    0.29834    0.78391   1.00
H2       0.68303    0.29290    0.81022   1.00
H2       0.68330    0.30671    0.75947   1.00
C5       0.67605    0.33989    0.96659   1.00
C5       0.77570    0.49326    0.86606   1.00
H2       0.65588    0.36330    0.97650   1.00
H2       0.70212    0.33962    0.98609   1.00
H2       0.74800    0.49583    0.84914   1.00
H2       0.79395    0.47039    0.85158   1.00
H2       0.85555    0.52348    0.84010   1.00
H2       0.60750    0.31690    1.00992   1.00
H2       0.65266    0.30269    1.03385   1.00
C2       0.56105    0.41290    0.91351   1.00
C3       0.58097    0.42274    0.94821   1.00
O2       0.56174    0.42219    0.98357   1.00
C3       0.58326    0.40577    0.87944   1.00
H1       0.56885    0.39917    0.85218   1.00
C3a      0.62213    0.42422    0.94837   1.00
H1       0.63702    0.42960    0.97567   1.00
C3b      0.62422    0.40605    0.88000   1.00
C4       0.64400    0.41523    0.91465   1.00
O_3      0.68667    0.34504    0.92714   1.00
C5       0.55220    0.46052    0.99519   1.00
H2       0.57891    0.47894    0.99827   1.00
C5       0.53166    0.45748    1.03474   1.00
H2       0.53226    0.47459    0.97368   1.00
H2       0.55423    0.45365    1.05779   1.00
H2       0.51399    0.43019    1.03445   1.00
C5       0.50569    0.49309    1.04381   1.00
H2       0.52311    0.52029    1.04093   1.00
H2       0.49391    0.49136    1.07404   1.00
H2       0.47994    0.49446    1.02381   1.00
C5       0.65520    0.30079    0.96983   1.00
H2       0.67718    0.27709    0.96648   1.00
H2       0.63455    0.29816    0.94485   1.00
C5       0.63303    0.29670    1.00869   1.00
H2       0.62166    0.26649    1.01180   1.00
C5       0.46350    0.03273    1.03239   1.00
H2       0.43495    0.01745    1.03351   1.00
H2       0.46313    0.05401    1.05684   1.00
C5       0.49685    0.00281    1.03805   1.00
H2       0.50110    -0.00390   1.06955   1.00
H2       0.52456    0.01460    1.02589   1.00
O_3      0.48405    0.18500    0.89955   1.00
C4       0.41456    0.14400    0.91496   1.00
C3c      0.42156    0.12257    0.94918   1.00
H1       0.42699    0.13775    0.97629   1.00
C3d      0.40699    0.12365    0.88006   1.00
C3       0.42223    0.08146    0.94895   1.00
O2       0.42451    0.06252    0.98429   1.00
C3       0.40837    0.08273    0.87957   1.00
H1       0.40376    0.06843    0.85184   1.00
C2       0.41583    0.06061    0.91382   1.00
C5       0.49320    0.18621    0.85940   1.00
H2       0.49747    0.21662    0.84867   1.00
H2       0.46972    0.17234    0.84160   1.00
C5       0.53100    0.16378    0.85356   1.00
H2       0.52708    0.13371    0.86529   1.00
H2       0.55430    0.17809    0.87117   1.00
C5       0.54240    0.16246    0.81030   1.00
H2       0.54609    0.19240    0.79834   1.00
H2       0.51978    0.14697    0.79290   1.00
H2       0.57053    0.14670    0.80671   1.00
C5       0.36341    0.15395    0.83989   1.00
C5       0.46394    0.05430    0.99326   1.00
H2       0.35350    0.17412    0.86330   1.00
H2       0.34391    0.12788    0.83962   1.00
H2       0.48086    0.08200    0.99583   1.00
H2       0.47842    0.03605    0.97039   1.00
H2       0.48990    -0.02555   1.02348   1.00
H2       0.32008    0.22250    0.81690   1.00
H2       0.29615    0.17734    0.80269   1.00
C2       0.41649    0.26895    0.91290   1.00
C3       0.38179    0.24903    0.92274   1.00
O2       0.34643    0.26826    0.92219   1.00
C3       0.45056    0.24674    0.90577   1.00
H1       0.47782    0.26115    0.89917   1.00
C3a      0.38163    0.20787    0.92422   1.00
H1       0.35433    0.19298    0.92960   1.00
C3b      0.45000    0.20578    0.90605   1.00
C4       0.41535    0.18600    0.91523   1.00
O_3      0.40286    0.14333    0.84504   1.00
C5       0.33481    0.27780    0.96052   1.00
H2       0.33173    0.25109    0.97894   1.00
C5       0.29526    0.29834    0.95748   1.00
H2       0.35632    0.29774    0.97459   1.00
H2       0.27221    0.27577    0.95365   1.00
H2       0.29555    0.31601    0.93019   1.00
C5       0.28619    0.32431    0.99309   1.00
H2       0.28907    0.30689    1.02029   1.00
H2       0.25596    0.33609    0.99136   1.00
H2       0.30619    0.35006    0.99446   1.00
C5       0.36017    0.17480    0.80079   1.00
H2       0.36352    0.15282    0.77709   1.00
H2       0.38515    0.19545    0.79816   1.00
C5       0.32131    0.19697    0.79670   1.00
H2       0.31820    0.20834    0.76649   1.00
C5       0.53239    0.46350    0.53273   1.00
H2       0.53351    0.43495    0.51745   1.00
H2       0.55684    0.46313    0.55401   1.00
C5       0.53805    0.49685    0.50281   1.00
H2       0.56955    0.50110    0.49610   1.00
H2       0.52589    0.52456    0.51460   1.00
O_3      0.39955    0.48405    0.68500   1.00
C4       0.41496    0.41456    0.64400   1.00
C3c      0.44918    0.42156    0.62257   1.00
H1       0.47629    0.42699    0.63775   1.00
C3d      0.38006    0.40699    0.62365   1.00
C3       0.44895    0.42223    0.58146   1.00
O2       0.48429    0.42451    0.56252   1.00
C3       0.37957    0.40837    0.58273   1.00
H1       0.35184    0.40376    0.56843   1.00
C2       0.41382    0.41583    0.56061   1.00
C5       0.35940    0.49320    0.68621   1.00
H2       0.34867    0.49747    0.71662   1.00
H2       0.34160    0.46972    0.67234   1.00
C5       0.35356    0.53100    0.66378   1.00
H2       0.36529    0.52708    0.63371   1.00
H2       0.37117    0.55430    0.67809   1.00
C5       0.31030    0.54240    0.66246   1.00
H2       0.29834    0.54609    0.69240   1.00
H2       0.29290    0.51978    0.64697   1.00
H2       0.30671    0.57053    0.64670   1.00
C5       0.33989    0.36341    0.65395   1.00
C5       0.49326    0.46394    0.55430   1.00
H2       0.36330    0.35350    0.67412   1.00
H2       0.33962    0.34391    0.62788   1.00
H2       0.49583    0.48086    0.58200   1.00
H2       0.47039    0.47842    0.53605   1.00
H2       0.52348    0.48990    0.47445   1.00
H2       0.31690    0.32008    0.72250   1.00
H2       0.30269    0.29615    0.67734   1.00
C2       0.41290    0.41649    0.76895   1.00
C3       0.42274    0.38179    0.74903   1.00
O2       0.42219    0.34643    0.76826   1.00
C3       0.40577    0.45056    0.74674   1.00
H1       0.39917    0.47782    0.76115   1.00
C3a      0.42422    0.38163    0.70787   1.00
H1       0.42960    0.35433    0.69298   1.00
C3b      0.40605    0.45000    0.70578   1.00
C4       0.41523    0.41535    0.68600   1.00
O_3      0.34504    0.40286    0.64333   1.00
C5       0.46052    0.33481    0.77780   1.00
H2       0.47894    0.33173    0.75109   1.00
C5       0.45748    0.29526    0.79834   1.00
H2       0.47459    0.35632    0.79774   1.00
H2       0.45365    0.27221    0.77577   1.00
H2       0.43019    0.29555    0.81601   1.00
C5       0.49309    0.28619    0.82431   1.00
H2       0.52029    0.28907    0.80689   1.00
H2       0.49136    0.25596    0.83609   1.00
H2       0.49446    0.30619    0.85006   1.00
C5       0.30079    0.36017    0.67480   1.00
H2       0.27709    0.36352    0.65282   1.00
H2       0.29816    0.38515    0.69545   1.00
C5       0.29670    0.32131    0.69697   1.00
H2       0.26649    0.31820    0.70834   1.00
C5       0.53239    0.86650    0.79727   1.00
H2       0.53351    0.89505    0.81255   1.00
H2       0.55684    0.86687    0.77599   1.00
C5       0.53805    0.83315    0.82719   1.00
H2       0.56955    0.82890    0.83390   1.00
H2       0.52589    0.80544    0.81540   1.00
O_3      0.39955    0.84595    0.64500   1.00
C4       0.41496    0.91544    0.68600   1.00
C3c      0.44918    0.90844    0.70743   1.00
H1       0.47629    0.90301    0.69225   1.00
C3d      0.38006    0.92301    0.70635   1.00
C3       0.44895    0.90777    0.74854   1.00
O2       0.48429    0.90549    0.76748   1.00
C3       0.37957    0.92163    0.74727   1.00
H1       0.35184    0.92624    0.76157   1.00
C2       0.41382    0.91417    0.76939   1.00
C5       0.35940    0.83680    0.64379   1.00
H2       0.34867    0.83253    0.61338   1.00
H2       0.34160    0.86028    0.65766   1.00
C5       0.35356    0.79900    0.66622   1.00
H2       0.36529    0.80292    0.69629   1.00
H2       0.37117    0.77570    0.65191   1.00
C5       0.31030    0.78760    0.66754   1.00
H2       0.29834    0.78391    0.63760   1.00
H2       0.29290    0.81022    0.68303   1.00
H2       0.30671    0.75947    0.68330   1.00
C5       0.33989    0.96659    0.67605   1.00
C5       0.49326    0.86606    0.77570   1.00
H2       0.36330    0.97650    0.65588   1.00
H2       0.33962    0.98609    0.70212   1.00
H2       0.49583    0.84914    0.74800   1.00
H2       0.47039    0.85158    0.79395   1.00
H2       0.52348    0.84010    0.85555   1.00
H2       0.31690    1.00992    0.60750   1.00
H2       0.30269    1.03385    0.65266   1.00
C2       0.41290    0.91351    0.56105   1.00
C3       0.42274    0.94821    0.58097   1.00
O2       0.42219    0.98357    0.56174   1.00
C3       0.40577    0.87944    0.58326   1.00
H1       0.39917    0.85218    0.56885   1.00
C3a      0.42422    0.94837    0.62213   1.00
H1       0.42960    0.97567    0.63702   1.00
C3b      0.40605    0.88000    0.62422   1.00
C4       0.41523    0.91465    0.64400   1.00
O_3      0.34504    0.92714    0.68667   1.00
C5       0.46052    0.99519    0.55220   1.00
H2       0.47894    0.99827    0.57891   1.00
C5       0.45748    1.03474    0.53166   1.00
H2       0.47459    0.97368    0.53226   1.00
H2       0.45365    1.05779    0.55423   1.00
H2       0.43019    1.03445    0.51399   1.00
C5       0.49309    1.04381    0.50569   1.00
H2       0.52029    1.04093    0.52311   1.00
H2       0.49136    1.07404    0.49391   1.00
H2       0.49446    1.02381    0.47994   1.00
C5       0.30079    0.96983    0.65520   1.00
H2       0.27709    0.96648    0.67718   1.00
H2       0.29816    0.94485    0.63455   1.00
C5       0.29670    1.00869    0.63303   1.00
H2       0.26649    1.01180    0.62166   1.00
C5       0.36650    1.29727    0.53239   1.00
H2       0.39505    1.31255    0.53351   1.00
H2       0.36687    1.27599    0.55684   1.00
C5       0.33315    1.32719    0.53805   1.00
H2       0.32890    1.33390    0.56955   1.00
H2       0.30544    1.31540    0.52589   1.00
O_3      0.34595    1.14500    0.39955   1.00
C4       0.41544    1.18600    0.41496   1.00
C3c      0.40844    1.20743    0.44918   1.00
H1       0.40301    1.19225    0.47629   1.00
C3d      0.42301    1.20635    0.38006   1.00
C3       0.40777    1.24854    0.44895   1.00
O2       0.40549    1.26748    0.48429   1.00
C3       0.42163    1.24727    0.37957   1.00
H1       0.42624    1.26157    0.35184   1.00
C2       0.41417    1.26939    0.41382   1.00
C5       0.33680    1.14379    0.35940   1.00
H2       0.33253    1.11338    0.34867   1.00
H2       0.36028    1.15766    0.34160   1.00
C5       0.29900    1.16622    0.35356   1.00
H2       0.30292    1.19629    0.36529   1.00
H2       0.27570    1.15191    0.37117   1.00
C5       0.28760    1.16754    0.31030   1.00
H2       0.28391    1.13760    0.29834   1.00
H2       0.31022    1.18303    0.29290   1.00
H2       0.25947    1.18330    0.30671   1.00
C5       0.46659    1.17605    0.33989   1.00
C5       0.36606    1.27570    0.49326   1.00
H2       0.47650    1.15588    0.36330   1.00
H2       0.48609    1.20212    0.33962   1.00
H2       0.34914    1.24800    0.49583   1.00
H2       0.35158    1.29395    0.47039   1.00
H2       0.34010    1.35555    0.52348   1.00
H2       0.50992    1.10750    0.31690   1.00
H2       0.53385    1.15266    0.30269   1.00
C2       0.41351    1.06105    0.41290   1.00
C3       0.44821    1.08097    0.42274   1.00
O2       0.48357    1.06174    0.42219   1.00
C3       0.37944    1.08326    0.40577   1.00
H1       0.35218    1.06885    0.39917   1.00
C3a      0.44837    1.12213    0.42422   1.00
H1       0.47567    1.13702    0.42960   1.00
C3b      0.38000    1.12422    0.40605   1.00
C4       0.41465    1.14400    0.41523   1.00
O_3      0.42714    1.18667    0.34504   1.00
C5       0.49519    1.05220    0.46052   1.00
H2       0.49827    1.07891    0.47894   1.00
C5       0.53474    1.03166    0.45748   1.00
H2       0.47368    1.03226    0.47459   1.00
H2       0.55779    1.05423    0.45365   1.00
H2       0.53445    1.01399    0.43019   1.00
C5       0.54381    1.00569    0.49309   1.00
H2       0.54093    1.02311    0.52029   1.00
H2       0.57404    0.99391    0.49136   1.00
H2       0.52381    0.97994    0.49446   1.00
C5       0.46983    1.15520    0.30079   1.00
H2       0.46648    1.17718    0.27709   1.00
H2       0.44485    1.13455    0.29816   1.00
C5       0.50869    1.13303    0.29670   1.00
H2       0.51180    1.12166    0.26649   1.00
C5       0.03273    1.03239    0.46350   1.00
H2       0.01745    1.03351    0.43495   1.00
H2       0.05401    1.05684    0.46313   1.00
C5       0.00281    1.03805    0.49685   1.00
H2       -0.00390   1.06955    0.50110   1.00
H2       0.01460    1.02589    0.52456   1.00
O_3      0.18500    0.89955    0.48405   1.00
C4       0.14400    0.91496    0.41456   1.00
C3c      0.12257    0.94918    0.42156   1.00
H1       0.13775    0.97629    0.42699   1.00
C3d      0.12365    0.88006    0.40699   1.00
C3       0.08146    0.94895    0.42223   1.00
O2       0.06252    0.98429    0.42451   1.00
C3       0.08273    0.87957    0.40837   1.00
H1       0.06843    0.85184    0.40376   1.00
C2       0.06061    0.91382    0.41583   1.00
C5       0.18621    0.85940    0.49320   1.00
H2       0.21662    0.84867    0.49747   1.00
H2       0.17234    0.84160    0.46972   1.00
C5       0.16378    0.85356    0.53100   1.00
H2       0.13371    0.86529    0.52708   1.00
H2       0.17809    0.87117    0.55430   1.00
C5       0.16246    0.81030    0.54240   1.00
H2       0.19240    0.79834    0.54609   1.00
H2       0.14697    0.79290    0.51978   1.00
H2       0.14670    0.80671    0.57053   1.00
C5       0.15395    0.83989    0.36341   1.00
C5       0.05430    0.99326    0.46394   1.00
H2       0.17412    0.86330    0.35350   1.00
H2       0.12788    0.83962    0.34391   1.00
H2       0.08200    0.99583    0.48086   1.00
H2       0.03605    0.97039    0.47842   1.00
H2       -0.02555   1.02348    0.48990   1.00
H2       0.22250    0.81690    0.32008   1.00
H2       0.17734    0.80269    0.29615   1.00
C2       0.26895    0.91290    0.41649   1.00
C3       0.24903    0.92274    0.38179   1.00
O2       0.26826    0.92219    0.34643   1.00
C3       0.24674    0.90577    0.45056   1.00
H1       0.26115    0.89917    0.47782   1.00
C3a      0.20787    0.92422    0.38163   1.00
H1       0.19298    0.92960    0.35433   1.00
C3b      0.20578    0.90605    0.45000   1.00
C4       0.18600    0.91523    0.41535   1.00
O_3      0.14333    0.84504    0.40286   1.00
C5       0.27780    0.96052    0.33481   1.00
H2       0.25109    0.97894    0.33173   1.00
C5       0.29834    0.95748    0.29526   1.00
H2       0.29774    0.97459    0.35632   1.00
H2       0.27577    0.95365    0.27221   1.00
H2       0.31601    0.93019    0.29555   1.00
C5       0.32431    0.99309    0.28619   1.00
H2       0.30689    1.02029    0.28907   1.00
H2       0.33609    0.99136    0.25596   1.00
H2       0.35006    0.99446    0.30619   1.00
C5       0.17480    0.80079    0.36017   1.00
H2       0.15282    0.77709    0.36352   1.00
H2       0.19545    0.79816    0.38515   1.00
C5       0.19697    0.79670    0.32131   1.00
H2       0.20834    0.76649    0.31820   1.00
C5       0.79727    1.03239    0.36650   1.00
H2       0.81255    1.03351    0.39505   1.00
H2       0.77599    1.05684    0.36687   1.00
C5       0.82719    1.03805    0.33315   1.00
H2       0.83390    1.06955    0.32890   1.00
H2       0.81540    1.02589    0.30544   1.00
O_3      0.64500    0.89955    0.34595   1.00
C4       0.68600    0.91496    0.41544   1.00
C3c      0.70743    0.94918    0.40844   1.00
H1       0.69225    0.97629    0.40301   1.00
C3d      0.70635    0.88006    0.42301   1.00
C3       0.74854    0.94895    0.40777   1.00
O2       0.76748    0.98429    0.40549   1.00
C3       0.74727    0.87957    0.42163   1.00
H1       0.76157    0.85184    0.42624   1.00
C2       0.76939    0.91382    0.41417   1.00
C5       0.64379    0.85940    0.33680   1.00
H2       0.61338    0.84867    0.33253   1.00
H2       0.65766    0.84160    0.36028   1.00
C5       0.66622    0.85356    0.29900   1.00
H2       0.69629    0.86529    0.30292   1.00
H2       0.65191    0.87117    0.27570   1.00
C5       0.66754    0.81030    0.28760   1.00
H2       0.63760    0.79834    0.28391   1.00
H2       0.68303    0.79290    0.31022   1.00
H2       0.68330    0.80671    0.25947   1.00
C5       0.67605    0.83989    0.46659   1.00
C5       0.77570    0.99326    0.36606   1.00
H2       0.65588    0.86330    0.47650   1.00
H2       0.70212    0.83962    0.48609   1.00
H2       0.74800    0.99583    0.34914   1.00
H2       0.79395    0.97039    0.35158   1.00
H2       0.85555    1.02348    0.34010   1.00
H2       0.60750    0.81690    0.50992   1.00
H2       0.65266    0.80269    0.53385   1.00
C2       0.56105    0.91290    0.41351   1.00
C3       0.58097    0.92274    0.44821   1.00
O2       0.56174    0.92219    0.48357   1.00
C3       0.58326    0.90577    0.37944   1.00
H1       0.56885    0.89917    0.35218   1.00
C3a      0.62213    0.92422    0.44837   1.00
H1       0.63702    0.92960    0.47567   1.00
C3b      0.62422    0.90605    0.38000   1.00
C4       0.64400    0.91523    0.41465   1.00
O_3      0.68667    0.84504    0.42714   1.00
C5       0.55220    0.96052    0.49519   1.00
H2       0.57891    0.97894    0.49827   1.00
C5       0.53166    0.95748    0.53474   1.00
H2       0.53226    0.97459    0.47368   1.00
H2       0.55423    0.95365    0.55779   1.00
H2       0.51399    0.93019    0.53445   1.00
C5       0.50569    0.99309    0.54381   1.00
H2       0.52311    1.02029    0.54093   1.00
H2       0.49391    0.99136    0.57404   1.00
H2       0.47994    0.99446    0.52381   1.00
C5       0.65520    0.80079    0.46983   1.00
H2       0.67718    0.77709    0.46648   1.00
H2       0.63455    0.79816    0.44485   1.00
C5       0.63303    0.79670    0.50869   1.00
H2       0.62166    0.76649    0.51180   1.00
C5       0.46350    0.53273    0.53239   1.00
H2       0.43495    0.51745    0.53351   1.00
H2       0.46313    0.55401    0.55684   1.00
C5       0.49685    0.50281    0.53805   1.00
H2       0.50110    0.49610    0.56955   1.00
H2       0.52456    0.51460    0.52589   1.00
O_3      0.48405    0.68500    0.39955   1.00
C4       0.41456    0.64400    0.41496   1.00
C3c      0.42156    0.62257    0.44918   1.00
H1       0.42699    0.63775    0.47629   1.00
C3d      0.40699    0.62365    0.38006   1.00
C3       0.42223    0.58146    0.44895   1.00
O2       0.42451    0.56252    0.48429   1.00
C3       0.40837    0.58273    0.37957   1.00
H1       0.40376    0.56843    0.35184   1.00
C2       0.41583    0.56061    0.41382   1.00
C5       0.49320    0.68621    0.35940   1.00
H2       0.49747    0.71662    0.34867   1.00
H2       0.46972    0.67234    0.34160   1.00
C5       0.53100    0.66378    0.35356   1.00
H2       0.52708    0.63371    0.36529   1.00
H2       0.55430    0.67809    0.37117   1.00
C5       0.54240    0.66246    0.31030   1.00
H2       0.54609    0.69240    0.29834   1.00
H2       0.51978    0.64697    0.29290   1.00
H2       0.57053    0.64670    0.30671   1.00
C5       0.36341    0.65395    0.33989   1.00
C5       0.46394    0.55430    0.49326   1.00
H2       0.35350    0.67412    0.36330   1.00
H2       0.34391    0.62788    0.33962   1.00
H2       0.48086    0.58200    0.49583   1.00
H2       0.47842    0.53605    0.47039   1.00
H2       0.48990    0.47445    0.52348   1.00
H2       0.32008    0.72250    0.31690   1.00
H2       0.29615    0.67734    0.30269   1.00
C2       0.41649    0.76895    0.41290   1.00
C3       0.38179    0.74903    0.42274   1.00
O2       0.34643    0.76826    0.42219   1.00
C3       0.45056    0.74674    0.40577   1.00
H1       0.47782    0.76115    0.39917   1.00
C3a      0.38163    0.70787    0.42422   1.00
H1       0.35433    0.69298    0.42960   1.00
C3b      0.45000    0.70578    0.40605   1.00
C4       0.41535    0.68600    0.41523   1.00
O_3      0.40286    0.64333    0.34504   1.00
C5       0.33481    0.77780    0.46052   1.00
H2       0.33173    0.75109    0.47894   1.00
C5       0.29526    0.79834    0.45748   1.00
H2       0.35632    0.79774    0.47459   1.00
H2       0.27221    0.77577    0.45365   1.00
H2       0.29555    0.81601    0.43019   1.00
C5       0.28619    0.82431    0.49309   1.00
H2       0.28907    0.80689    0.52029   1.00
H2       0.25596    0.83609    0.49136   1.00
H2       0.30619    0.85006    0.49446   1.00
C5       0.36017    0.67480    0.30079   1.00
H2       0.36352    0.65282    0.27709   1.00
H2       0.38515    0.69545    0.29816   1.00
C5       0.32131    0.69697    0.29670   1.00
H2       0.31820    0.70834    0.26649   1.00
C5       0.53239    0.96350    0.03273   1.00
H2       0.53351    0.93495    0.01745   1.00
H2       0.55684    0.96313    0.05401   1.00
C5       0.53805    0.99685    0.00281   1.00
H2       0.56955    1.00110    -0.00390   1.00
H2       0.52589    1.02456    0.01460   1.00
O_3      0.39955    0.98405    0.18500   1.00
C4       0.41496    0.91456    0.14400   1.00
C3c      0.44918    0.92156    0.12257   1.00
H1       0.47629    0.92699    0.13775   1.00
C3d      0.38006    0.90699    0.12365   1.00
C3       0.44895    0.92223    0.08146   1.00
O2       0.48429    0.92451    0.06252   1.00
C3       0.37957    0.90837    0.08273   1.00
H1       0.35184    0.90376    0.06843   1.00
C2       0.41382    0.91583    0.06061   1.00
C5       0.35940    0.99320    0.18621   1.00
H2       0.34867    0.99747    0.21662   1.00
H2       0.34160    0.96972    0.17234   1.00
C5       0.35356    1.03100    0.16378   1.00
H2       0.36529    1.02708    0.13371   1.00
H2       0.37117    1.05430    0.17809   1.00
C5       0.31030    1.04240    0.16246   1.00
H2       0.29834    1.04609    0.19240   1.00
H2       0.29290    1.01978    0.14697   1.00
H2       0.30671    1.07053    0.14670   1.00
C5       0.33989    0.86341    0.15395   1.00
C5       0.49326    0.96394    0.05430   1.00
H2       0.36330    0.85350    0.17412   1.00
H2       0.33962    0.84391    0.12788   1.00
H2       0.49583    0.98086    0.08200   1.00
H2       0.47039    0.97842    0.03605   1.00
H2       0.52348    0.98990    -0.02555   1.00
H2       0.31690    0.82008    0.22250   1.00
H2       0.30269    0.79615    0.17734   1.00
C2       0.41290    0.91649    0.26895   1.00
C3       0.42274    0.88179    0.24903   1.00
O2       0.42219    0.84643    0.26826   1.00
C3       0.40577    0.95056    0.24674   1.00
H1       0.39917    0.97782    0.26115   1.00
C3a      0.42422    0.88163    0.20787   1.00
H1       0.42960    0.85433    0.19298   1.00
C3b      0.40605    0.95000    0.20578   1.00
C4       0.41523    0.91535    0.18600   1.00
O_3      0.34504    0.90286    0.14333   1.00
C5       0.46052    0.83481    0.27780   1.00
H2       0.47894    0.83173    0.25109   1.00
C5       0.45748    0.79526    0.29834   1.00
H2       0.47459    0.85632    0.29774   1.00
H2       0.45365    0.77221    0.27577   1.00
H2       0.43019    0.79555    0.31601   1.00
C5       0.49309    0.78619    0.32431   1.00
H2       0.52029    0.78907    0.30689   1.00
H2       0.49136    0.75596    0.33609   1.00
H2       0.49446    0.80619    0.35006   1.00
C5       0.30079    0.86017    0.17480   1.00
H2       0.27709    0.86352    0.15282   1.00
H2       0.29816    0.88515    0.19545   1.00
C5       0.29670    0.82131    0.19697   1.00
H2       0.26649    0.81820    0.20834   1.00
C5       1.03239    0.36650    0.79727   1.00
H2       1.03351    0.39505    0.81255   1.00
H2       1.05684    0.36687    0.77599   1.00
C5       1.03805    0.33315    0.82719   1.00
H2       1.06955    0.32890    0.83390   1.00
H2       1.02589    0.30544    0.81540   1.00
O_3      0.89955    0.34595    0.64500   1.00
C4       0.91496    0.41544    0.68600   1.00
C3c      0.94918    0.40844    0.70743   1.00
H1       0.97629    0.40301    0.69225   1.00
C3d      0.88006    0.42301    0.70635   1.00
C3       0.94895    0.40777    0.74854   1.00
O2       0.98429    0.40549    0.76748   1.00
C3       0.87957    0.42163    0.74727   1.00
H1       0.85184    0.42624    0.76157   1.00
C2       0.91382    0.41417    0.76939   1.00
C5       0.85940    0.33680    0.64379   1.00
H2       0.84867    0.33253    0.61338   1.00
H2       0.84160    0.36028    0.65766   1.00
C5       0.85356    0.29900    0.66622   1.00
H2       0.86529    0.30292    0.69629   1.00
H2       0.87117    0.27570    0.65191   1.00
C5       0.81030    0.28760    0.66754   1.00
H2       0.79834    0.28391    0.63760   1.00
H2       0.79290    0.31022    0.68303   1.00
H2       0.80671    0.25947    0.68330   1.00
C5       0.83989    0.46659    0.67605   1.00
C5       0.99326    0.36606    0.77570   1.00
H2       0.86330    0.47650    0.65588   1.00
H2       0.83962    0.48609    0.70212   1.00
H2       0.99583    0.34914    0.74800   1.00
H2       0.97039    0.35158    0.79395   1.00
H2       1.02348    0.34010    0.85555   1.00
H2       0.81690    0.50992    0.60750   1.00
H2       0.80269    0.53385    0.65266   1.00
C2       0.91290    0.41351    0.56105   1.00
C3       0.92274    0.44821    0.58097   1.00
O2       0.92219    0.48357    0.56174   1.00
C3       0.90577    0.37944    0.58326   1.00
H1       0.89917    0.35218    0.56885   1.00
C3a      0.92422    0.44837    0.62213   1.00
H1       0.92960    0.47567    0.63702   1.00
C3b      0.90605    0.38000    0.62422   1.00
C4       0.91523    0.41465    0.64400   1.00
O_3      0.84504    0.42714    0.68667   1.00
C5       0.96052    0.49519    0.55220   1.00
H2       0.97894    0.49827    0.57891   1.00
C5       0.95748    0.53474    0.53166   1.00
H2       0.97459    0.47368    0.53226   1.00
H2       0.95365    0.55779    0.55423   1.00
H2       0.93019    0.53445    0.51399   1.00
C5       0.99309    0.54381    0.50569   1.00
H2       1.02029    0.54093    0.52311   1.00
H2       0.99136    0.57404    0.49391   1.00
H2       0.99446    0.52381    0.47994   1.00
C5       0.80079    0.46983    0.65520   1.00
H2       0.77709    0.46648    0.67718   1.00
H2       0.79816    0.44485    0.63455   1.00
C5       0.79670    0.50869    0.63303   1.00
H2       0.76649    0.51180    0.62166   1.00
C5       0.86650    0.79727    0.53239   1.00
H2       0.89505    0.81255    0.53351   1.00
H2       0.86687    0.77599    0.55684   1.00
C5       0.83315    0.82719    0.53805   1.00
H2       0.82890    0.83390    0.56955   1.00
H2       0.80544    0.81540    0.52589   1.00
O_3      0.84595    0.64500    0.39955   1.00
C4       0.91544    0.68600    0.41496   1.00
C3c      0.90844    0.70743    0.44918   1.00
H1       0.90301    0.69225    0.47629   1.00
C3d      0.92301    0.70635    0.38006   1.00
C3       0.90777    0.74854    0.44895   1.00
O2       0.90549    0.76748    0.48429   1.00
C3       0.92163    0.74727    0.37957   1.00
H1       0.92624    0.76157    0.35184   1.00
C2       0.91417    0.76939    0.41382   1.00
C5       0.83680    0.64379    0.35940   1.00
H2       0.83253    0.61338    0.34867   1.00
H2       0.86028    0.65766    0.34160   1.00
C5       0.79900    0.66622    0.35356   1.00
H2       0.80292    0.69629    0.36529   1.00
H2       0.77570    0.65191    0.37117   1.00
C5       0.78760    0.66754    0.31030   1.00
H2       0.78391    0.63760    0.29834   1.00
H2       0.81022    0.68303    0.29290   1.00
H2       0.75947    0.68330    0.30671   1.00
C5       0.96659    0.67605    0.33989   1.00
C5       0.86606    0.77570    0.49326   1.00
H2       0.97650    0.65588    0.36330   1.00
H2       0.98609    0.70212    0.33962   1.00
H2       0.84914    0.74800    0.49583   1.00
H2       0.85158    0.79395    0.47039   1.00
H2       0.84010    0.85555    0.52348   1.00
H2       1.00992    0.60750    0.31690   1.00
H2       1.03385    0.65266    0.30269   1.00
C2       0.91351    0.56105    0.41290   1.00
C3       0.94821    0.58097    0.42274   1.00
O2       0.98357    0.56174    0.42219   1.00
C3       0.87944    0.58326    0.40577   1.00
H1       0.85218    0.56885    0.39917   1.00
C3a      0.94837    0.62213    0.42422   1.00
H1       0.97567    0.63702    0.42960   1.00
C3b      0.88000    0.62422    0.40605   1.00
C4       0.91465    0.64400    0.41523   1.00
O_3      0.92714    0.68667    0.34504   1.00
C5       0.99519    0.55220    0.46052   1.00
H2       0.99827    0.57891    0.47894   1.00
C5       1.03474    0.53166    0.45748   1.00
H2       0.97368    0.53226    0.47459   1.00
H2       1.05779    0.55423    0.45365   1.00
H2       1.03445    0.51399    0.43019   1.00
C5       1.04381    0.50569    0.49309   1.00
H2       1.04093    0.52311    0.52029   1.00
H2       1.07404    0.49391    0.49136   1.00
H2       1.02381    0.47994    0.49446   1.00
C5       0.96983    0.65520    0.30079   1.00
H2       0.96648    0.67718    0.27709   1.00
H2       0.94485    0.63455    0.29816   1.00
C5       1.00869    0.63303    0.29670   1.00
H2       1.01180    0.62166    0.26649   1.00
C5       0.53273    0.53239    0.46350   1.00
H2       0.51745    0.53351    0.43495   1.00
H2       0.55401    0.55684    0.46313   1.00
C5       0.50281    0.53805    0.49685   1.00
H2       0.49610    0.56955    0.50110   1.00
H2       0.51460    0.52589    0.52456   1.00
O_3      0.68500    0.39955    0.48405   1.00
C4       0.64400    0.41496    0.41456   1.00
C3c      0.62257    0.44918    0.42156   1.00
H1       0.63775    0.47629    0.42699   1.00
C3d      0.62365    0.38006    0.40699   1.00
C3       0.58146    0.44895    0.42223   1.00
O2       0.56252    0.48429    0.42451   1.00
C3       0.58273    0.37957    0.40837   1.00
H1       0.56843    0.35184    0.40376   1.00
C2       0.56061    0.41382    0.41583   1.00
C5       0.68621    0.35940    0.49320   1.00
H2       0.71662    0.34867    0.49747   1.00
H2       0.67234    0.34160    0.46972   1.00
C5       0.66378    0.35356    0.53100   1.00
H2       0.63371    0.36529    0.52708   1.00
H2       0.67809    0.37117    0.55430   1.00
C5       0.66246    0.31030    0.54240   1.00
H2       0.69240    0.29834    0.54609   1.00
H2       0.64697    0.29290    0.51978   1.00
H2       0.64670    0.30671    0.57053   1.00
C5       0.65395    0.33989    0.36341   1.00
C5       0.55430    0.49326    0.46394   1.00
H2       0.67412    0.36330    0.35350   1.00
H2       0.62788    0.33962    0.34391   1.00
H2       0.58200    0.49583    0.48086   1.00
H2       0.53605    0.47039    0.47842   1.00
H2       0.47445    0.52348    0.48990   1.00
H2       0.72250    0.31690    0.32008   1.00
H2       0.67734    0.30269    0.29615   1.00
C2       0.76895    0.41290    0.41649   1.00
C3       0.74903    0.42274    0.38179   1.00
O2       0.76826    0.42219    0.34643   1.00
C3       0.74674    0.40577    0.45056   1.00
H1       0.76115    0.39917    0.47782   1.00
C3a      0.70787    0.42422    0.38163   1.00
H1       0.69298    0.42960    0.35433   1.00
C3b      0.70578    0.40605    0.45000   1.00
C4       0.68600    0.41523    0.41535   1.00
O_3      0.64333    0.34504    0.40286   1.00
C5       0.77780    0.46052    0.33481   1.00
H2       0.75109    0.47894    0.33173   1.00
C5       0.79834    0.45748    0.29526   1.00
H2       0.79774    0.47459    0.35632   1.00
H2       0.77577    0.45365    0.27221   1.00
H2       0.81601    0.43019    0.29555   1.00
C5       0.82431    0.49309    0.28619   1.00
H2       0.80689    0.52029    0.28907   1.00
H2       0.83609    0.49136    0.25596   1.00
H2       0.85006    0.49446    0.30619   1.00
C5       0.67480    0.30079    0.36017   1.00
H2       0.65282    0.27709    0.36352   1.00
H2       0.69545    0.29816    0.38515   1.00
C5       0.69697    0.29670    0.32131   1.00
H2       0.70834    0.26649    0.31820   1.00
C5       1.29727    0.53239    0.36650   1.00
H2       1.31255    0.53351    0.39505   1.00
H2       1.27599    0.55684    0.36687   1.00
C5       1.32719    0.53805    0.33315   1.00
H2       1.33390    0.56955    0.32890   1.00
H2       1.31540    0.52589    0.30544   1.00
O_3      1.14500    0.39955    0.34595   1.00
C4       1.18600    0.41496    0.41544   1.00
C3c      1.20743    0.44918    0.40844   1.00
H1       1.19225    0.47629    0.40301   1.00
C3d      1.20635    0.38006    0.42301   1.00
C3       1.24854    0.44895    0.40777   1.00
O2       1.26748    0.48429    0.40549   1.00
C3       1.24727    0.37957    0.42163   1.00
H1       1.26157    0.35184    0.42624   1.00
C2       1.26939    0.41382    0.41417   1.00
C5       1.14379    0.35940    0.33680   1.00
H2       1.11338    0.34867    0.33253   1.00
H2       1.15766    0.34160    0.36028   1.00
C5       1.16622    0.35356    0.29900   1.00
H2       1.19629    0.36529    0.30292   1.00
H2       1.15191    0.37117    0.27570   1.00
C5       1.16754    0.31030    0.28760   1.00
H2       1.13760    0.29834    0.28391   1.00
H2       1.18303    0.29290    0.31022   1.00
H2       1.18330    0.30671    0.25947   1.00
C5       1.17605    0.33989    0.46659   1.00
C5       1.27570    0.49326    0.36606   1.00
H2       1.15588    0.36330    0.47650   1.00
H2       1.20212    0.33962    0.48609   1.00
H2       1.24800    0.49583    0.34914   1.00
H2       1.29395    0.47039    0.35158   1.00
H2       1.35555    0.52348    0.34010   1.00
H2       1.10750    0.31690    0.50992   1.00
H2       1.15266    0.30269    0.53385   1.00
C2       1.06105    0.41290    0.41351   1.00
C3       1.08097    0.42274    0.44821   1.00
O2       1.06174    0.42219    0.48357   1.00
C3       1.08326    0.40577    0.37944   1.00
H1       1.06885    0.39917    0.35218   1.00
C3a      1.12213    0.42422    0.44837   1.00
H1       1.13702    0.42960    0.47567   1.00
C3b      1.12422    0.40605    0.38000   1.00
C4       1.14400    0.41523    0.41465   1.00
O_3      1.18667    0.34504    0.42714   1.00
C5       1.05220    0.46052    0.49519   1.00
H2       1.07891    0.47894    0.49827   1.00
C5       1.03166    0.45748    0.53474   1.00
H2       1.03226    0.47459    0.47368   1.00
H2       1.05423    0.45365    0.55779   1.00
H2       1.01399    0.43019    0.53445   1.00
C5       1.00569    0.49309    0.54381   1.00
H2       1.02311    0.52029    0.54093   1.00
H2       0.99391    0.49136    0.57404   1.00
H2       0.97994    0.49446    0.52381   1.00
C5       1.15520    0.30079    0.46983   1.00
H2       1.17718    0.27709    0.46648   1.00
H2       1.13455    0.29816    0.44485   1.00
C5       1.13303    0.29670    0.50869   1.00
H2       1.12166    0.26649    0.51180   1.00
C5       0.96350    0.03273    0.53239   1.00
H2       0.93495    0.01745    0.53351   1.00
H2       0.96313    0.05401    0.55684   1.00
C5       0.99685    0.00281    0.53805   1.00
H2       1.00110    -0.00390   0.56955   1.00
H2       1.02456    0.01460    0.52589   1.00
O_3      0.98405    0.18500    0.39955   1.00
C4       0.91456    0.14400    0.41496   1.00
C3c      0.92156    0.12257    0.44918   1.00
H1       0.92699    0.13775    0.47629   1.00
C3d      0.90699    0.12365    0.38006   1.00
C3       0.92223    0.08146    0.44895   1.00
O2       0.92451    0.06252    0.48429   1.00
C3       0.90837    0.08273    0.37957   1.00
H1       0.90376    0.06843    0.35184   1.00
C2       0.91583    0.06061    0.41382   1.00
C5       0.99320    0.18621    0.35940   1.00
H2       0.99747    0.21662    0.34867   1.00
H2       0.96972    0.17234    0.34160   1.00
C5       1.03100    0.16378    0.35356   1.00
H2       1.02708    0.13371    0.36529   1.00
H2       1.05430    0.17809    0.37117   1.00
C5       1.04240    0.16246    0.31030   1.00
H2       1.04609    0.19240    0.29834   1.00
H2       1.01978    0.14697    0.29290   1.00
H2       1.07053    0.14670    0.30671   1.00
C5       0.86341    0.15395    0.33989   1.00
C5       0.96394    0.05430    0.49326   1.00
H2       0.85350    0.17412    0.36330   1.00
H2       0.84391    0.12788    0.33962   1.00
H2       0.98086    0.08200    0.49583   1.00
H2       0.97842    0.03605    0.47039   1.00
H2       0.98990    -0.02555   0.52348   1.00
H2       0.82008    0.22250    0.31690   1.00
H2       0.79615    0.17734    0.30269   1.00
C2       0.91649    0.26895    0.41290   1.00
C3       0.88179    0.24903    0.42274   1.00
O2       0.84643    0.26826    0.42219   1.00
C3       0.95056    0.24674    0.40577   1.00
H1       0.97782    0.26115    0.39917   1.00
C3a      0.88163    0.20787    0.42422   1.00
H1       0.85433    0.19298    0.42960   1.00
C3b      0.95000    0.20578    0.40605   1.00
C4       0.91535    0.18600    0.41523   1.00
O_3      0.90286    0.14333    0.34504   1.00
C5       0.83481    0.27780    0.46052   1.00
H2       0.83173    0.25109    0.47894   1.00
C5       0.79526    0.29834    0.45748   1.00
H2       0.85632    0.29774    0.47459   1.00
H2       0.77221    0.27577    0.45365   1.00
H2       0.79555    0.31601    0.43019   1.00
C5       0.78619    0.32431    0.49309   1.00
H2       0.78907    0.30689    0.52029   1.00
H2       0.75596    0.33609    0.49136   1.00
H2       0.80619    0.35006    0.49446   1.00
C5       0.86017    0.17480    0.30079   1.00
H2       0.86352    0.15282    0.27709   1.00
H2       0.88515    0.19545    0.29816   1.00
C5       0.82131    0.19697    0.29670   1.00
H2       0.81820    0.20834    0.26649   1.00
C5       1.03239    0.46350    0.03273   1.00
H2       1.03351    0.43495    0.01745   1.00
H2       1.05684    0.46313    0.05401   1.00
C5       1.03805    0.49685    0.00281   1.00
H2       1.06955    0.50110    -0.00390   1.00
H2       1.02589    0.52456    0.01460   1.00
O_3      0.89955    0.48405    0.18500   1.00
C4       0.91496    0.41456    0.14400   1.00
C3c      0.94918    0.42156    0.12257   1.00
H1       0.97629    0.42699    0.13775   1.00
C3d      0.88006    0.40699    0.12365   1.00
C3       0.94895    0.42223    0.08146   1.00
O2       0.98429    0.42451    0.06252   1.00
C3       0.87957    0.40837    0.08273   1.00
H1       0.85184    0.40376    0.06843   1.00
C2       0.91382    0.41583    0.06061   1.00
C5       0.85940    0.49320    0.18621   1.00
H2       0.84867    0.49747    0.21662   1.00
H2       0.84160    0.46972    0.17234   1.00
C5       0.85356    0.53100    0.16378   1.00
H2       0.86529    0.52708    0.13371   1.00
H2       0.87117    0.55430    0.17809   1.00
C5       0.81030    0.54240    0.16246   1.00
H2       0.79834    0.54609    0.19240   1.00
H2       0.79290    0.51978    0.14697   1.00
H2       0.80671    0.57053    0.14670   1.00
C5       0.83989    0.36341    0.15395   1.00
C5       0.99326    0.46394    0.05430   1.00
H2       0.86330    0.35350    0.17412   1.00
H2       0.83962    0.34391    0.12788   1.00
H2       0.99583    0.48086    0.08200   1.00
H2       0.97039    0.47842    0.03605   1.00
H2       1.02348    0.48990    -0.02555   1.00
H2       0.81690    0.32008    0.22250   1.00
H2       0.80269    0.29615    0.17734   1.00
C2       0.91290    0.41649    0.26895   1.00
C3       0.92274    0.38179    0.24903   1.00
O2       0.92219    0.34643    0.26826   1.00
C3       0.90577    0.45056    0.24674   1.00
H1       0.89917    0.47782    0.26115   1.00
C3a      0.92422    0.38163    0.20787   1.00
H1       0.92960    0.35433    0.19298   1.00
C3b      0.90605    0.45000    0.20578   1.00
C4       0.91523    0.41535    0.18600   1.00
O_3      0.84504    0.40286    0.14333   1.00
C5       0.96052    0.33481    0.27780   1.00
H2       0.97894    0.33173    0.25109   1.00
C5       0.95748    0.29526    0.29834   1.00
H2       0.97459    0.35632    0.29774   1.00
H2       0.95365    0.27221    0.27577   1.00
H2       0.93019    0.29555    0.31601   1.00
C5       0.99309    0.28619    0.32431   1.00
H2       1.02029    0.28907    0.30689   1.00
H2       0.99136    0.25596    0.33609   1.00
H2       0.99446    0.30619    0.35006   1.00
C5       0.80079    0.36017    0.17480   1.00
H2       0.77709    0.36352    0.15282   1.00
H2       0.79816    0.38515    0.19545   1.00
C5       0.79670    0.32131    0.19697   1.00
H2       0.76649    0.31820    0.20834   1.00
