data_IRMOF10_SG202_interpen_Ligand3cp_label_m.

_audit_creation_method             'generated by an auxiliary program of Tobunporous'

_symmetry_space_group_name_H-M     'P 1'
_symmetry_Int_Tables_number        1
_symmetry_cell_setting             triclinic

_cell_length_a                    34.2800
_cell_length_b                    34.2800
_cell_length_c                    34.2800
_cell_angle_alpha                 90.0000
_cell_angle_beta                  90.0000
_cell_angle_gamma                 90.0000

loop_
_atom_site_label
_atom_site_fract_x
_atom_site_fract_y
_atom_site_fract_z
_atom_site_occupancy
O1       0.75000    0.75000    0.75000   1.00
Zn1      0.71720    0.78280    0.78280   1.00
Zn1      0.78280    0.71720    0.78280   1.00
Zn1      0.78280    0.78280    0.71720   1.00
Zn1      0.71720    0.71720    0.71720   1.00
O2       0.72650    0.77350    0.83820   1.00
O2       0.72650    0.83820    0.77350   1.00
O2       0.66180    0.77350    0.77350   1.00
O2       0.77350    0.72650    0.83820   1.00
O2       0.83820    0.72650    0.77350   1.00
O2       0.77350    0.66180    0.77350   1.00
O2       0.77350    0.83820    0.72650   1.00
O2       0.83820    0.77350    0.72650   1.00
O2       0.77350    0.77350    0.66180   1.00
O2       0.66180    0.72650    0.72650   1.00
O2       0.72650    0.66180    0.72650   1.00
O2       0.72650    0.72650    0.66180   1.00
C1       0.75000    0.75000    0.85520   1.00
C1       0.75000    0.85520    0.75000   1.00
C1       0.64480    0.75000    0.75000   1.00
C1       0.85520    0.75000    0.75000   1.00
C1       0.75000    0.64480    0.75000   1.00
C1       0.75000    0.75000    0.64480   1.00
O1       0.25000    0.25000    0.75000   1.00
Zn1      0.21720    0.28280    0.78280   1.00
Zn1      0.28280    0.21720    0.78280   1.00
Zn1      0.28280    0.28280    0.71720   1.00
Zn1      0.21720    0.21720    0.71720   1.00
O2       0.22650    0.27350    0.83820   1.00
O2       0.22650    0.33820    0.77350   1.00
O2       0.16180    0.27350    0.77350   1.00
O2       0.27350    0.22650    0.83820   1.00
O2       0.33820    0.22650    0.77350   1.00
O2       0.27350    0.16180    0.77350   1.00
O2       0.27350    0.33820    0.72650   1.00
O2       0.33820    0.27350    0.72650   1.00
O2       0.27350    0.27350    0.66180   1.00
O2       0.16180    0.22650    0.72650   1.00
O2       0.22650    0.16180    0.72650   1.00
O2       0.22650    0.22650    0.66180   1.00
C1       0.25000    0.25000    0.85520   1.00
C1       0.25000    0.35520    0.75000   1.00
C1       0.14480    0.25000    0.75000   1.00
C1       0.35520    0.25000    0.75000   1.00
C1       0.25000    0.14480    0.75000   1.00
C1       0.25000    0.25000    0.64480   1.00
O1       0.25000    0.75000    0.25000   1.00
Zn1      0.21720    0.78280    0.28280   1.00
Zn1      0.28280    0.71720    0.28280   1.00
Zn1      0.28280    0.78280    0.21720   1.00
Zn1      0.21720    0.71720    0.21720   1.00
O2       0.22650    0.77350    0.33820   1.00
O2       0.22650    0.83820    0.27350   1.00
O2       0.16180    0.77350    0.27350   1.00
O2       0.27350    0.72650    0.33820   1.00
O2       0.33820    0.72650    0.27350   1.00
O2       0.27350    0.66180    0.27350   1.00
O2       0.27350    0.83820    0.22650   1.00
O2       0.33820    0.77350    0.22650   1.00
O2       0.27350    0.77350    0.16180   1.00
O2       0.16180    0.72650    0.22650   1.00
O2       0.22650    0.66180    0.22650   1.00
O2       0.22650    0.72650    0.16180   1.00
C1       0.25000    0.75000    0.35520   1.00
C1       0.25000    0.85520    0.25000   1.00
C1       0.14480    0.75000    0.25000   1.00
C1       0.35520    0.75000    0.25000   1.00
C1       0.25000    0.64480    0.25000   1.00
C1       0.25000    0.75000    0.14480   1.00
O1       0.75000    0.25000    0.25000   1.00
Zn1      0.71720    0.28280    0.28280   1.00
Zn1      0.78280    0.21720    0.28280   1.00
Zn1      0.78280    0.28280    0.21720   1.00
Zn1      0.71720    0.21720    0.21720   1.00
O2       0.72650    0.27350    0.33820   1.00
O2       0.72650    0.33820    0.27350   1.00
O2       0.66180    0.27350    0.27350   1.00
O2       0.77350    0.22650    0.33820   1.00
O2       0.83820    0.22650    0.27350   1.00
O2       0.77350    0.16180    0.27350   1.00
O2       0.77350    0.33820    0.22650   1.00
O2       0.83820    0.27350    0.22650   1.00
O2       0.77350    0.27350    0.16180   1.00
O2       0.66180    0.22650    0.22650   1.00
O2       0.72650    0.16180    0.22650   1.00
O2       0.72650    0.22650    0.16180   1.00
C1       0.75000    0.25000    0.35520   1.00
C1       0.75000    0.35520    0.25000   1.00
C1       0.64480    0.25000    0.25000   1.00
C1       0.85520    0.25000    0.25000   1.00
C1       0.75000    0.14480    0.25000   1.00
C1       0.75000    0.25000    0.14480   1.00
O1       0.25000    0.25000    0.25000   1.00
Zn1      0.28280    0.21720    0.21720   1.00
Zn1      0.21720    0.28280    0.21720   1.00
Zn1      0.21720    0.21720    0.28280   1.00
Zn1      0.28280    0.28280    0.28280   1.00
O2       0.27350    0.22650    0.16180   1.00
O2       0.27350    0.16180    0.22650   1.00
O2       0.33820    0.22650    0.22650   1.00
O2       0.22650    0.27350    0.16180   1.00
O2       0.16180    0.27350    0.22650   1.00
O2       0.22650    0.33820    0.22650   1.00
O2       0.22650    0.16180    0.27350   1.00
O2       0.16180    0.22650    0.27350   1.00
O2       0.22650    0.22650    0.33820   1.00
O2       0.33820    0.27350    0.27350   1.00
O2       0.27350    0.33820    0.27350   1.00
O2       0.27350    0.27350    0.33820   1.00
C1       0.25000    0.25000    0.14480   1.00
C1       0.25000    0.14480    0.25000   1.00
C1       0.35520    0.25000    0.25000   1.00
C1       0.14480    0.25000    0.25000   1.00
C1       0.25000    0.35520    0.25000   1.00
C1       0.25000    0.25000    0.35520   1.00
O1       0.75000    0.75000    0.25000   1.00
Zn1      0.78280    0.71720    0.21720   1.00
Zn1      0.71720    0.78280    0.21720   1.00
Zn1      0.71720    0.71720    0.28280   1.00
Zn1      0.78280    0.78280    0.28280   1.00
O2       0.77350    0.72650    0.16180   1.00
O2       0.77350    0.66180    0.22650   1.00
O2       0.83820    0.72650    0.22650   1.00
O2       0.72650    0.77350    0.16180   1.00
O2       0.66180    0.77350    0.22650   1.00
O2       0.72650    0.83820    0.22650   1.00
O2       0.72650    0.66180    0.27350   1.00
O2       0.66180    0.72650    0.27350   1.00
O2       0.72650    0.72650    0.33820   1.00
O2       0.83820    0.77350    0.27350   1.00
O2       0.77350    0.83820    0.27350   1.00
O2       0.77350    0.77350    0.33820   1.00
C1       0.75000    0.75000    0.14480   1.00
C1       0.75000    0.64480    0.25000   1.00
C1       0.85520    0.75000    0.25000   1.00
C1       0.64480    0.75000    0.25000   1.00
C1       0.75000    0.85520    0.25000   1.00
C1       0.75000    0.75000    0.35520   1.00
O1       0.75000    0.25000    0.75000   1.00
Zn1      0.78280    0.21720    0.71720   1.00
Zn1      0.71720    0.28280    0.71720   1.00
Zn1      0.71720    0.21720    0.78280   1.00
Zn1      0.78280    0.28280    0.78280   1.00
O2       0.77350    0.22650    0.66180   1.00
O2       0.77350    0.16180    0.72650   1.00
O2       0.83820    0.22650    0.72650   1.00
O2       0.72650    0.27350    0.66180   1.00
O2       0.66180    0.27350    0.72650   1.00
O2       0.72650    0.33820    0.72650   1.00
O2       0.72650    0.16180    0.77350   1.00
O2       0.66180    0.22650    0.77350   1.00
O2       0.72650    0.22650    0.83820   1.00
O2       0.83820    0.27350    0.77350   1.00
O2       0.77350    0.33820    0.77350   1.00
O2       0.77350    0.27350    0.83820   1.00
C1       0.75000    0.25000    0.64480   1.00
C1       0.75000    0.14480    0.75000   1.00
C1       0.85520    0.25000    0.75000   1.00
C1       0.64480    0.25000    0.75000   1.00
C1       0.75000    0.35520    0.75000   1.00
C1       0.75000    0.25000    0.85520   1.00
O1       0.25000    0.75000    0.75000   1.00
Zn1      0.28280    0.71720    0.71720   1.00
Zn1      0.21720    0.78280    0.71720   1.00
Zn1      0.21720    0.71720    0.78280   1.00
Zn1      0.28280    0.78280    0.78280   1.00
O2       0.27350    0.72650    0.66180   1.00
O2       0.27350    0.66180    0.72650   1.00
O2       0.33820    0.72650    0.72650   1.00
O2       0.22650    0.77350    0.66180   1.00
O2       0.16180    0.77350    0.72650   1.00
O2       0.22650    0.83820    0.72650   1.00
O2       0.22650    0.66180    0.77350   1.00
O2       0.16180    0.72650    0.77350   1.00
O2       0.22650    0.72650    0.83820   1.00
O2       0.33820    0.77350    0.77350   1.00
O2       0.27350    0.83820    0.77350   1.00
O2       0.27350    0.77350    0.83820   1.00
C1       0.25000    0.75000    0.64480   1.00
C1       0.25000    0.64480    0.75000   1.00
C1       0.35520    0.75000    0.75000   1.00
C1       0.14480    0.75000    0.75000   1.00
C1       0.25000    0.85520    0.75000   1.00
C1       0.25000    0.75000    0.85520   1.00
O1       0.91500    0.91500    0.91500   1.00
Zn1      0.88220    0.94780    0.94780   1.00
Zn1      0.94780    0.88220    0.94780   1.00
Zn1      0.94780    0.94780    0.88220   1.00
Zn1      0.88220    0.88220    0.88220   1.00
O2       0.89150    0.93850    1.00320   1.00
O2       0.89150    1.00320    0.93850   1.00
O2       0.82680    0.93850    0.93850   1.00
O2       0.93850    0.89150    1.00320   1.00
O2       1.00320    0.89150    0.93850   1.00
O2       0.93850    0.82680    0.93850   1.00
O2       0.93850    1.00320    0.89150   1.00
O2       1.00320    0.93850    0.89150   1.00
O2       0.93850    0.93850    0.82680   1.00
O2       0.82680    0.89150    0.89150   1.00
O2       0.89150    0.82680    0.89150   1.00
O2       0.89150    0.89150    0.82680   1.00
C1       0.91500    0.91500    1.02020   1.00
C1       0.91500    1.02020    0.91500   1.00
C1       0.80980    0.91500    0.91500   1.00
C1       1.02020    0.91500    0.91500   1.00
C1       0.91500    0.80980    0.91500   1.00
C1       0.91500    0.91500    0.80980   1.00
O1       0.41500    0.41500    0.91500   1.00
Zn1      0.38220    0.44780    0.94780   1.00
Zn1      0.44780    0.38220    0.94780   1.00
Zn1      0.44780    0.44780    0.88220   1.00
Zn1      0.38220    0.38220    0.88220   1.00
O2       0.39150    0.43850    1.00320   1.00
O2       0.39150    0.50320    0.93850   1.00
O2       0.32680    0.43850    0.93850   1.00
O2       0.43850    0.39150    1.00320   1.00
O2       0.50320    0.39150    0.93850   1.00
O2       0.43850    0.32680    0.93850   1.00
O2       0.43850    0.50320    0.89150   1.00
O2       0.50320    0.43850    0.89150   1.00
O2       0.43850    0.43850    0.82680   1.00
O2       0.32680    0.39150    0.89150   1.00
O2       0.39150    0.32680    0.89150   1.00
O2       0.39150    0.39150    0.82680   1.00
C1       0.41500    0.41500    1.02020   1.00
C1       0.41500    0.52020    0.91500   1.00
C1       0.30980    0.41500    0.91500   1.00
C1       0.52020    0.41500    0.91500   1.00
C1       0.41500    0.30980    0.91500   1.00
C1       0.41500    0.41500    0.80980   1.00
O1       0.41500    0.91500    0.41500   1.00
Zn1      0.38220    0.94780    0.44780   1.00
Zn1      0.44780    0.88220    0.44780   1.00
Zn1      0.44780    0.94780    0.38220   1.00
Zn1      0.38220    0.88220    0.38220   1.00
O2       0.39150    0.93850    0.50320   1.00
O2       0.39150    1.00320    0.43850   1.00
O2       0.32680    0.93850    0.43850   1.00
O2       0.43850    0.89150    0.50320   1.00
O2       0.50320    0.89150    0.43850   1.00
O2       0.43850    0.82680    0.43850   1.00
O2       0.43850    1.00320    0.39150   1.00
O2       0.50320    0.93850    0.39150   1.00
O2       0.43850    0.93850    0.32680   1.00
O2       0.32680    0.89150    0.39150   1.00
O2       0.39150    0.82680    0.39150   1.00
O2       0.39150    0.89150    0.32680   1.00
C1       0.41500    0.91500    0.52020   1.00
C1       0.41500    1.02020    0.41500   1.00
C1       0.30980    0.91500    0.41500   1.00
C1       0.52020    0.91500    0.41500   1.00
C1       0.41500    0.80980    0.41500   1.00
C1       0.41500    0.91500    0.30980   1.00
O1       0.91500    0.41500    0.41500   1.00
Zn1      0.88220    0.44780    0.44780   1.00
Zn1      0.94780    0.38220    0.44780   1.00
Zn1      0.94780    0.44780    0.38220   1.00
Zn1      0.88220    0.38220    0.38220   1.00
O2       0.89150    0.43850    0.50320   1.00
O2       0.89150    0.50320    0.43850   1.00
O2       0.82680    0.43850    0.43850   1.00
O2       0.93850    0.39150    0.50320   1.00
O2       1.00320    0.39150    0.43850   1.00
O2       0.93850    0.32680    0.43850   1.00
O2       0.93850    0.50320    0.39150   1.00
O2       1.00320    0.43850    0.39150   1.00
O2       0.93850    0.43850    0.32680   1.00
O2       0.82680    0.39150    0.39150   1.00
O2       0.89150    0.32680    0.39150   1.00
O2       0.89150    0.39150    0.32680   1.00
C1       0.91500    0.41500    0.52020   1.00
C1       0.91500    0.52020    0.41500   1.00
C1       0.80980    0.41500    0.41500   1.00
C1       1.02020    0.41500    0.41500   1.00
C1       0.91500    0.30980    0.41500   1.00
C1       0.91500    0.41500    0.30980   1.00
O1       0.41500    0.41500    0.41500   1.00
Zn1      0.44780    0.38220    0.38220   1.00
Zn1      0.38220    0.44780    0.38220   1.00
Zn1      0.38220    0.38220    0.44780   1.00
Zn1      0.44780    0.44780    0.44780   1.00
O2       0.43850    0.39150    0.32680   1.00
O2       0.43850    0.32680    0.39150   1.00
O2       0.50320    0.39150    0.39150   1.00
O2       0.39150    0.43850    0.32680   1.00
O2       0.32680    0.43850    0.39150   1.00
O2       0.39150    0.50320    0.39150   1.00
O2       0.39150    0.32680    0.43850   1.00
O2       0.32680    0.39150    0.43850   1.00
O2       0.39150    0.39150    0.50320   1.00
O2       0.50320    0.43850    0.43850   1.00
O2       0.43850    0.50320    0.43850   1.00
O2       0.43850    0.43850    0.50320   1.00
C1       0.41500    0.41500    0.30980   1.00
C1       0.41500    0.30980    0.41500   1.00
C1       0.52020    0.41500    0.41500   1.00
C1       0.30980    0.41500    0.41500   1.00
C1       0.41500    0.52020    0.41500   1.00
C1       0.41500    0.41500    0.52020   1.00
O1       0.91500    0.91500    0.41500   1.00
Zn1      0.94780    0.88220    0.38220   1.00
Zn1      0.88220    0.94780    0.38220   1.00
Zn1      0.88220    0.88220    0.44780   1.00
Zn1      0.94780    0.94780    0.44780   1.00
O2       0.93850    0.89150    0.32680   1.00
O2       0.93850    0.82680    0.39150   1.00
O2       1.00320    0.89150    0.39150   1.00
O2       0.89150    0.93850    0.32680   1.00
O2       0.82680    0.93850    0.39150   1.00
O2       0.89150    1.00320    0.39150   1.00
O2       0.89150    0.82680    0.43850   1.00
O2       0.82680    0.89150    0.43850   1.00
O2       0.89150    0.89150    0.50320   1.00
O2       1.00320    0.93850    0.43850   1.00
O2       0.93850    1.00320    0.43850   1.00
O2       0.93850    0.93850    0.50320   1.00
C1       0.91500    0.91500    0.30980   1.00
C1       0.91500    0.80980    0.41500   1.00
C1       1.02020    0.91500    0.41500   1.00
C1       0.80980    0.91500    0.41500   1.00
C1       0.91500    1.02020    0.41500   1.00
C1       0.91500    0.91500    0.52020   1.00
O1       0.91500    0.41500    0.91500   1.00
Zn1      0.94780    0.38220    0.88220   1.00
Zn1      0.88220    0.44780    0.88220   1.00
Zn1      0.88220    0.38220    0.94780   1.00
Zn1      0.94780    0.44780    0.94780   1.00
O2       0.93850    0.39150    0.82680   1.00
O2       0.93850    0.32680    0.89150   1.00
O2       1.00320    0.39150    0.89150   1.00
O2       0.89150    0.43850    0.82680   1.00
O2       0.82680    0.43850    0.89150   1.00
O2       0.89150    0.50320    0.89150   1.00
O2       0.89150    0.32680    0.93850   1.00
O2       0.82680    0.39150    0.93850   1.00
O2       0.89150    0.39150    1.00320   1.00
O2       1.00320    0.43850    0.93850   1.00
O2       0.93850    0.50320    0.93850   1.00
O2       0.93850    0.43850    1.00320   1.00
C1       0.91500    0.41500    0.80980   1.00
C1       0.91500    0.30980    0.91500   1.00
C1       1.02020    0.41500    0.91500   1.00
C1       0.80980    0.41500    0.91500   1.00
C1       0.91500    0.52020    0.91500   1.00
C1       0.91500    0.41500    1.02020   1.00
O1       0.41500    0.91500    0.91500   1.00
Zn1      0.44780    0.88220    0.88220   1.00
Zn1      0.38220    0.94780    0.88220   1.00
Zn1      0.38220    0.88220    0.94780   1.00
Zn1      0.44780    0.94780    0.94780   1.00
O2       0.43850    0.89150    0.82680   1.00
O2       0.43850    0.82680    0.89150   1.00
O2       0.50320    0.89150    0.89150   1.00
O2       0.39150    0.93850    0.82680   1.00
O2       0.32680    0.93850    0.89150   1.00
O2       0.39150    1.00320    0.89150   1.00
O2       0.39150    0.82680    0.93850   1.00
O2       0.32680    0.89150    0.93850   1.00
O2       0.39150    0.89150    1.00320   1.00
O2       0.50320    0.93850    0.93850   1.00
O2       0.43850    1.00320    0.93850   1.00
O2       0.43850    0.93850    1.00320   1.00
C1       0.41500    0.91500    0.80980   1.00
C1       0.41500    0.80980    0.91500   1.00
C1       0.52020    0.91500    0.91500   1.00
C1       0.30980    0.91500    0.91500   1.00
C1       0.41500    1.02020    0.91500   1.00
C1       0.41500    0.91500    1.02020   1.00
C4       0.74961    0.74698    1.02084   1.00
C4       0.74915    0.74755    0.97912   1.00
C3       0.72746    0.72040    1.04364   1.00
C3       0.72389    0.72405    0.95616   1.00
C3       0.77296    0.77481    1.04123   1.00
C3       0.77534    0.77282    0.95886   1.00
C2       0.75062    0.74898    1.10512   1.00
C2       0.74938    0.75102    0.89488   1.00
C3       0.72777    0.72149    1.08462   1.00
C3       0.72424    0.72546    0.91519   1.00
C3       0.77343    0.77496    1.08258   1.00
C3       0.77406    0.77501    0.91762   1.00
H1       0.71057    0.69938    1.03115   1.00
H1       0.70433    0.70540    0.96852   1.00
C5       0.79581    0.80220    1.02020   1.00
C5       0.80242    0.79603    0.97980   1.00
H1       0.71094    0.70172    1.09955   1.00
H1       0.70555    0.70755    0.90010   1.00
H1       0.79114    0.79437    1.09680   1.00
H1       0.79122    0.79504    0.90368   1.00
O3       0.81303    0.83291    1.03961   1.00
O3       0.83289    0.81460    0.96099   1.00
Si1      0.79046    0.87478    1.04247   1.00
Si1      0.87304    0.79034    0.95279   1.00
C6       0.82304    0.89735    1.07538   1.00
C6       0.79273    0.89670    0.99598   1.00
C6       0.74315    0.87110    1.06253   1.00
C6       0.87496    0.74077    0.96693   1.00
C6       0.87855    0.79382    0.90198   1.00
C6       0.91141    0.81656    0.97477   1.00
C6       0.83488    0.87252    1.11194   1.00
H2       0.84958    0.89983    1.05791   1.00
C6       0.81494    0.93948    1.09147   1.00
H2       0.81874    0.88314    0.98358   1.00
C6       0.75904    0.88830    0.96634   1.00
C6       0.79996    0.94172    0.99336   1.00
H2       0.74818    0.85300    1.08831   1.00
C6       0.72378    0.90964    1.07772   1.00
C6       0.70991    0.85057    1.03849   1.00
C6       0.86705    0.73060    1.01071   1.00
C6       0.85266    0.70940    0.94225   1.00
H2       0.90562    0.73358    0.96212   1.00
H2       0.85514    0.77555    0.89051   1.00
C6       0.87169    0.83517    0.88378   1.00
C6       0.91734    0.77793    0.88393   1.00
H2       0.91809    0.83955    0.95375   1.00
C6       0.90137    0.83847    1.01336   1.00
C6       0.95080    0.79469    0.98244   1.00
H2       0.84704    0.84430    1.10346   1.00
H2       0.80980    0.86717    1.13090   1.00
H2       0.85730    0.88731    1.12917   1.00
H2       0.84251    0.95489    1.09608   1.00
H2       0.79739    0.95708    1.07178   1.00
H2       0.80004    0.93900    1.11964   1.00
H2       0.76778    0.89636    0.93672   1.00
H2       0.75144    0.85749    0.96532   1.00
H2       0.73292    0.90504    0.97352   1.00
H2       0.82661    0.95014    1.00862   1.00
H2       0.80373    0.95112    0.96308   1.00
H2       0.77541    0.95804    1.00550   1.00
H2       0.72367    0.93213    1.05514   1.00
H2       0.69359    0.90503    1.08708   1.00
H2       0.73878    0.92079    1.10332   1.00
H2       0.69493    0.87085    1.01902   1.00
H2       0.72018    0.82657    1.02068   1.00
H2       0.68790    0.83860    1.05828   1.00
H2       0.83594    0.72854    1.01688   1.00
H2       0.87989    0.70234    1.01809   1.00
H2       0.87970    0.75199    1.03048   1.00
H2       0.86109    0.67995    0.95125   1.00
H2       0.82118    0.71146    0.94574   1.00
H2       0.85943    0.71150    0.91122   1.00
H2       0.86917    0.83309    0.85202   1.00
H2       0.84456    0.84819    0.89435   1.00
H2       0.89555    0.85521    0.89035   1.00
H2       0.92392    0.74850    0.89416   1.00
H2       0.91500    0.77640    0.85212   1.00
H2       0.94202    0.79686    0.89085   1.00
H2       0.89265    0.81852    1.03656   1.00
H2       0.92601    0.85579    1.02381   1.00
H2       0.87741    0.85857    1.00834   1.00
H2       0.97383    0.81528    0.99044   1.00
H2       0.94799    0.77363    1.00622   1.00
H2       0.96093    0.77921    0.95657   1.00
C4       0.74698    1.02084    0.74961   1.00
C4       0.74755    0.97912    0.74915   1.00
C3       0.72040    1.04364    0.72746   1.00
C3       0.72405    0.95616    0.72389   1.00
C3       0.77481    1.04123    0.77296   1.00
C3       0.77282    0.95886    0.77534   1.00
C2       0.74898    1.10512    0.75062   1.00
C2       0.75102    0.89488    0.74938   1.00
C3       0.72149    1.08462    0.72777   1.00
C3       0.72546    0.91519    0.72424   1.00
C3       0.77496    1.08258    0.77343   1.00
C3       0.77501    0.91762    0.77406   1.00
H1       0.69938    1.03115    0.71057   1.00
H1       0.70540    0.96852    0.70433   1.00
C5       0.80220    1.02020    0.79581   1.00
C5       0.79603    0.97980    0.80242   1.00
H1       0.70172    1.09955    0.71094   1.00
H1       0.70755    0.90010    0.70555   1.00
H1       0.79437    1.09680    0.79114   1.00
H1       0.79504    0.90368    0.79122   1.00
O3       0.83291    1.03961    0.81303   1.00
O3       0.81460    0.96099    0.83289   1.00
Si1      0.87478    1.04247    0.79046   1.00
Si1      0.79034    0.95279    0.87304   1.00
C6       0.89735    1.07538    0.82304   1.00
C6       0.89670    0.99598    0.79273   1.00
C6       0.87110    1.06253    0.74315   1.00
C6       0.74077    0.96693    0.87496   1.00
C6       0.79382    0.90198    0.87855   1.00
C6       0.81656    0.97477    0.91141   1.00
C6       0.87252    1.11194    0.83488   1.00
H2       0.89983    1.05791    0.84958   1.00
C6       0.93948    1.09147    0.81494   1.00
H2       0.88314    0.98358    0.81874   1.00
C6       0.88830    0.96634    0.75904   1.00
C6       0.94172    0.99336    0.79996   1.00
H2       0.85300    1.08831    0.74818   1.00
C6       0.90964    1.07772    0.72378   1.00
C6       0.85057    1.03849    0.70991   1.00
C6       0.73060    1.01071    0.86705   1.00
C6       0.70940    0.94225    0.85266   1.00
H2       0.73358    0.96212    0.90562   1.00
H2       0.77555    0.89051    0.85514   1.00
C6       0.83517    0.88378    0.87169   1.00
C6       0.77793    0.88393    0.91734   1.00
H2       0.83955    0.95375    0.91809   1.00
C6       0.83847    1.01336    0.90137   1.00
C6       0.79469    0.98244    0.95080   1.00
H2       0.84430    1.10346    0.84704   1.00
H2       0.86717    1.13090    0.80980   1.00
H2       0.88731    1.12917    0.85730   1.00
H2       0.95489    1.09608    0.84251   1.00
H2       0.95708    1.07178    0.79739   1.00
H2       0.93900    1.11964    0.80004   1.00
H2       0.89636    0.93672    0.76778   1.00
H2       0.85749    0.96532    0.75144   1.00
H2       0.90504    0.97352    0.73292   1.00
H2       0.95014    1.00862    0.82661   1.00
H2       0.95112    0.96308    0.80373   1.00
H2       0.95804    1.00550    0.77541   1.00
H2       0.93213    1.05514    0.72367   1.00
H2       0.90503    1.08708    0.69359   1.00
H2       0.92079    1.10332    0.73878   1.00
H2       0.87085    1.01902    0.69493   1.00
H2       0.82657    1.02068    0.72018   1.00
H2       0.83860    1.05828    0.68790   1.00
H2       0.72854    1.01688    0.83594   1.00
H2       0.70234    1.01809    0.87989   1.00
H2       0.75199    1.03048    0.87970   1.00
H2       0.67995    0.95125    0.86109   1.00
H2       0.71146    0.94574    0.82118   1.00
H2       0.71150    0.91122    0.85943   1.00
H2       0.83309    0.85202    0.86917   1.00
H2       0.84819    0.89435    0.84456   1.00
H2       0.85521    0.89035    0.89555   1.00
H2       0.74850    0.89416    0.92392   1.00
H2       0.77640    0.85212    0.91500   1.00
H2       0.79686    0.89085    0.94202   1.00
H2       0.81852    1.03656    0.89265   1.00
H2       0.85579    1.02381    0.92601   1.00
H2       0.85857    1.00834    0.87741   1.00
H2       0.81528    0.99044    0.97383   1.00
H2       0.77363    1.00622    0.94799   1.00
H2       0.77921    0.95657    0.96093   1.00
C4       0.47916    0.74961    0.75302   1.00
C4       0.52088    0.74915    0.75245   1.00
C3       0.45636    0.72746    0.77960   1.00
C3       0.54384    0.72389    0.77595   1.00
C3       0.45877    0.77296    0.72519   1.00
C3       0.54114    0.77534    0.72718   1.00
C2       0.39488    0.75062    0.75102   1.00
C2       0.60512    0.74938    0.74898   1.00
C3       0.41538    0.72777    0.77851   1.00
C3       0.58481    0.72424    0.77454   1.00
C3       0.41742    0.77343    0.72504   1.00
C3       0.58238    0.77406    0.72499   1.00
H1       0.46885    0.71057    0.80062   1.00
H1       0.53148    0.70433    0.79460   1.00
C5       0.47980    0.79581    0.69780   1.00
C5       0.52020    0.80242    0.70397   1.00
H1       0.40045    0.71094    0.79828   1.00
H1       0.59990    0.70555    0.79245   1.00
H1       0.40320    0.79114    0.70563   1.00
H1       0.59632    0.79122    0.70496   1.00
O3       0.46039    0.81303    0.66709   1.00
O3       0.53901    0.83289    0.68540   1.00
Si1      0.45753    0.79046    0.62522   1.00
Si1      0.54721    0.87304    0.70966   1.00
C6       0.42462    0.82304    0.60265   1.00
C6       0.50402    0.79273    0.60330   1.00
C6       0.43747    0.74315    0.62890   1.00
C6       0.53307    0.87496    0.75923   1.00
C6       0.59802    0.87855    0.70618   1.00
C6       0.52523    0.91141    0.68344   1.00
C6       0.38806    0.83488    0.62748   1.00
H2       0.44209    0.84958    0.60017   1.00
C6       0.40853    0.81494    0.56052   1.00
H2       0.51642    0.81874    0.61686   1.00
C6       0.53366    0.75904    0.61170   1.00
C6       0.50664    0.79996    0.55828   1.00
H2       0.41169    0.74818    0.64700   1.00
C6       0.42228    0.72378    0.59036   1.00
C6       0.46151    0.70991    0.64943   1.00
C6       0.48929    0.86705    0.76940   1.00
C6       0.55775    0.85266    0.79060   1.00
H2       0.53788    0.90562    0.76642   1.00
H2       0.60949    0.85514    0.72445   1.00
C6       0.61622    0.87169    0.66483   1.00
C6       0.61607    0.91734    0.72207   1.00
H2       0.54625    0.91809    0.66045   1.00
C6       0.48664    0.90137    0.66153   1.00
C6       0.51756    0.95080    0.70531   1.00
H2       0.39654    0.84704    0.65570   1.00
H2       0.36910    0.80980    0.63283   1.00
H2       0.37083    0.85730    0.61269   1.00
H2       0.40392    0.84251    0.54511   1.00
H2       0.42822    0.79739    0.54292   1.00
H2       0.38036    0.80004    0.56100   1.00
H2       0.56328    0.76778    0.60364   1.00
H2       0.53468    0.75144    0.64251   1.00
H2       0.52648    0.73292    0.59496   1.00
H2       0.49138    0.82661    0.54986   1.00
H2       0.53692    0.80373    0.54888   1.00
H2       0.49450    0.77541    0.54196   1.00
H2       0.44486    0.72367    0.56787   1.00
H2       0.41292    0.69359    0.59497   1.00
H2       0.39668    0.73878    0.57921   1.00
H2       0.48098    0.69493    0.62915   1.00
H2       0.47932    0.72018    0.67343   1.00
H2       0.44172    0.68790    0.66140   1.00
H2       0.48312    0.83594    0.77146   1.00
H2       0.48191    0.87989    0.79766   1.00
H2       0.46952    0.87970    0.74801   1.00
H2       0.54875    0.86109    0.82005   1.00
H2       0.55426    0.82118    0.78854   1.00
H2       0.58878    0.85943    0.78850   1.00
H2       0.64798    0.86917    0.66691   1.00
H2       0.60565    0.84456    0.65181   1.00
H2       0.60965    0.89555    0.64479   1.00
H2       0.60584    0.92392    0.75150   1.00
H2       0.64788    0.91500    0.72360   1.00
H2       0.60915    0.94202    0.70314   1.00
H2       0.46344    0.89265    0.68148   1.00
H2       0.47619    0.92601    0.64421   1.00
H2       0.49166    0.87741    0.64143   1.00
H2       0.50956    0.97383    0.68472   1.00
H2       0.49378    0.94799    0.72637   1.00
H2       0.54343    0.96093    0.72079   1.00
C4       1.02084    0.74961    0.74698   1.00
C4       0.97912    0.74915    0.74755   1.00
C3       1.04364    0.72746    0.72040   1.00
C3       0.95616    0.72389    0.72405   1.00
C3       1.04123    0.77296    0.77481   1.00
C3       0.95886    0.77534    0.77282   1.00
C2       1.10512    0.75062    0.74898   1.00
C2       0.89488    0.74938    0.75102   1.00
C3       1.08462    0.72777    0.72149   1.00
C3       0.91519    0.72424    0.72546   1.00
C3       1.08258    0.77343    0.77496   1.00
C3       0.91762    0.77406    0.77501   1.00
H1       1.03115    0.71057    0.69938   1.00
H1       0.96852    0.70433    0.70540   1.00
C5       1.02020    0.79581    0.80220   1.00
C5       0.97980    0.80242    0.79603   1.00
H1       1.09955    0.71094    0.70172   1.00
H1       0.90010    0.70555    0.70755   1.00
H1       1.09680    0.79114    0.79437   1.00
H1       0.90368    0.79122    0.79504   1.00
O3       1.03961    0.81303    0.83291   1.00
O3       0.96099    0.83289    0.81460   1.00
Si1      1.04247    0.79046    0.87478   1.00
Si1      0.95279    0.87304    0.79034   1.00
C6       1.07538    0.82304    0.89735   1.00
C6       0.99598    0.79273    0.89670   1.00
C6       1.06253    0.74315    0.87110   1.00
C6       0.96693    0.87496    0.74077   1.00
C6       0.90198    0.87855    0.79382   1.00
C6       0.97477    0.91141    0.81656   1.00
C6       1.11194    0.83488    0.87252   1.00
H2       1.05791    0.84958    0.89983   1.00
C6       1.09147    0.81494    0.93948   1.00
H2       0.98358    0.81874    0.88314   1.00
C6       0.96634    0.75904    0.88830   1.00
C6       0.99336    0.79996    0.94172   1.00
H2       1.08831    0.74818    0.85300   1.00
C6       1.07772    0.72378    0.90964   1.00
C6       1.03849    0.70991    0.85057   1.00
C6       1.01071    0.86705    0.73060   1.00
C6       0.94225    0.85266    0.70940   1.00
H2       0.96212    0.90562    0.73358   1.00
H2       0.89051    0.85514    0.77555   1.00
C6       0.88378    0.87169    0.83517   1.00
C6       0.88393    0.91734    0.77793   1.00
H2       0.95375    0.91809    0.83955   1.00
C6       1.01336    0.90137    0.83847   1.00
C6       0.98244    0.95080    0.79469   1.00
H2       1.10346    0.84704    0.84430   1.00
H2       1.13090    0.80980    0.86717   1.00
H2       1.12917    0.85730    0.88731   1.00
H2       1.09608    0.84251    0.95489   1.00
H2       1.07178    0.79739    0.95708   1.00
H2       1.11964    0.80004    0.93900   1.00
H2       0.93672    0.76778    0.89636   1.00
H2       0.96532    0.75144    0.85749   1.00
H2       0.97352    0.73292    0.90504   1.00
H2       1.00862    0.82661    0.95014   1.00
H2       0.96308    0.80373    0.95112   1.00
H2       1.00550    0.77541    0.95804   1.00
H2       1.05514    0.72367    0.93213   1.00
H2       1.08708    0.69359    0.90503   1.00
H2       1.10332    0.73878    0.92079   1.00
H2       1.01902    0.69493    0.87085   1.00
H2       1.02068    0.72018    0.82657   1.00
H2       1.05828    0.68790    0.83860   1.00
H2       1.01688    0.83594    0.72854   1.00
H2       1.01809    0.87989    0.70234   1.00
H2       1.03048    0.87970    0.75199   1.00
H2       0.95125    0.86109    0.67995   1.00
H2       0.94574    0.82118    0.71146   1.00
H2       0.91122    0.85943    0.71150   1.00
H2       0.85202    0.86917    0.83309   1.00
H2       0.89435    0.84456    0.84819   1.00
H2       0.89035    0.89555    0.85521   1.00
H2       0.89416    0.92392    0.74850   1.00
H2       0.85212    0.91500    0.77640   1.00
H2       0.89085    0.94202    0.79686   1.00
H2       1.03656    0.89265    0.81852   1.00
H2       1.02381    0.92601    0.85579   1.00
H2       1.00834    0.87741    0.85857   1.00
H2       0.99044    0.97383    0.81528   1.00
H2       1.00622    0.94799    0.77363   1.00
H2       0.95657    0.96093    0.77921   1.00
C4       0.75302    0.47916    0.74961   1.00
C4       0.75245    0.52088    0.74915   1.00
C3       0.77960    0.45636    0.72746   1.00
C3       0.77595    0.54384    0.72389   1.00
C3       0.72519    0.45877    0.77296   1.00
C3       0.72718    0.54114    0.77534   1.00
C2       0.75102    0.39488    0.75062   1.00
C2       0.74898    0.60512    0.74938   1.00
C3       0.77851    0.41538    0.72777   1.00
C3       0.77454    0.58481    0.72424   1.00
C3       0.72504    0.41742    0.77343   1.00
C3       0.72499    0.58238    0.77406   1.00
H1       0.80062    0.46885    0.71057   1.00
H1       0.79460    0.53148    0.70433   1.00
C5       0.69780    0.47980    0.79581   1.00
C5       0.70397    0.52020    0.80242   1.00
H1       0.79828    0.40045    0.71094   1.00
H1       0.79245    0.59990    0.70555   1.00
H1       0.70563    0.40320    0.79114   1.00
H1       0.70496    0.59632    0.79122   1.00
O3       0.66709    0.46039    0.81303   1.00
O3       0.68540    0.53901    0.83289   1.00
Si1      0.62522    0.45753    0.79046   1.00
Si1      0.70966    0.54721    0.87304   1.00
C6       0.60265    0.42462    0.82304   1.00
C6       0.60330    0.50402    0.79273   1.00
C6       0.62890    0.43747    0.74315   1.00
C6       0.75923    0.53307    0.87496   1.00
C6       0.70618    0.59802    0.87855   1.00
C6       0.68344    0.52523    0.91141   1.00
C6       0.62748    0.38806    0.83488   1.00
H2       0.60017    0.44209    0.84958   1.00
C6       0.56052    0.40853    0.81494   1.00
H2       0.61686    0.51642    0.81874   1.00
C6       0.61170    0.53366    0.75904   1.00
C6       0.55828    0.50664    0.79996   1.00
H2       0.64700    0.41169    0.74818   1.00
C6       0.59036    0.42228    0.72378   1.00
C6       0.64943    0.46151    0.70991   1.00
C6       0.76940    0.48929    0.86705   1.00
C6       0.79060    0.55775    0.85266   1.00
H2       0.76642    0.53788    0.90562   1.00
H2       0.72445    0.60949    0.85514   1.00
C6       0.66483    0.61622    0.87169   1.00
C6       0.72207    0.61607    0.91734   1.00
H2       0.66045    0.54625    0.91809   1.00
C6       0.66153    0.48664    0.90137   1.00
C6       0.70531    0.51756    0.95080   1.00
H2       0.65570    0.39654    0.84704   1.00
H2       0.63283    0.36910    0.80980   1.00
H2       0.61269    0.37083    0.85730   1.00
H2       0.54511    0.40392    0.84251   1.00
H2       0.54292    0.42822    0.79739   1.00
H2       0.56100    0.38036    0.80004   1.00
H2       0.60364    0.56328    0.76778   1.00
H2       0.64251    0.53468    0.75144   1.00
H2       0.59496    0.52648    0.73292   1.00
H2       0.54986    0.49138    0.82661   1.00
H2       0.54888    0.53692    0.80373   1.00
H2       0.54196    0.49450    0.77541   1.00
H2       0.56787    0.44486    0.72367   1.00
H2       0.59497    0.41292    0.69359   1.00
H2       0.57921    0.39668    0.73878   1.00
H2       0.62915    0.48098    0.69493   1.00
H2       0.67343    0.47932    0.72018   1.00
H2       0.66140    0.44172    0.68790   1.00
H2       0.77146    0.48312    0.83594   1.00
H2       0.79766    0.48191    0.87989   1.00
H2       0.74801    0.46952    0.87970   1.00
H2       0.82005    0.54875    0.86109   1.00
H2       0.78854    0.55426    0.82118   1.00
H2       0.78850    0.58878    0.85943   1.00
H2       0.66691    0.64798    0.86917   1.00
H2       0.65181    0.60565    0.84456   1.00
H2       0.64479    0.60965    0.89555   1.00
H2       0.75150    0.60584    0.92392   1.00
H2       0.72360    0.64788    0.91500   1.00
H2       0.70314    0.60915    0.94202   1.00
H2       0.68148    0.46344    0.89265   1.00
H2       0.64421    0.47619    0.92601   1.00
H2       0.64143    0.49166    0.87741   1.00
H2       0.68472    0.50956    0.97383   1.00
H2       0.72637    0.49378    0.94799   1.00
H2       0.72079    0.54343    0.96093   1.00
C4       0.74961    0.75302    0.47916   1.00
C4       0.74915    0.75245    0.52088   1.00
C3       0.72746    0.77960    0.45636   1.00
C3       0.72389    0.77595    0.54384   1.00
C3       0.77296    0.72519    0.45877   1.00
C3       0.77534    0.72718    0.54114   1.00
C2       0.75062    0.75102    0.39488   1.00
C2       0.74938    0.74898    0.60512   1.00
C3       0.72777    0.77851    0.41538   1.00
C3       0.72424    0.77454    0.58481   1.00
C3       0.77343    0.72504    0.41742   1.00
C3       0.77406    0.72499    0.58238   1.00
H1       0.71057    0.80062    0.46885   1.00
H1       0.70433    0.79460    0.53148   1.00
C5       0.79581    0.69780    0.47980   1.00
C5       0.80242    0.70397    0.52020   1.00
H1       0.71094    0.79828    0.40045   1.00
H1       0.70555    0.79245    0.59990   1.00
H1       0.79114    0.70563    0.40320   1.00
H1       0.79122    0.70496    0.59632   1.00
O3       0.81303    0.66709    0.46039   1.00
O3       0.83289    0.68540    0.53901   1.00
Si1      0.79046    0.62522    0.45753   1.00
Si1      0.87304    0.70966    0.54721   1.00
C6       0.82304    0.60265    0.42462   1.00
C6       0.79273    0.60330    0.50402   1.00
C6       0.74315    0.62890    0.43747   1.00
C6       0.87496    0.75923    0.53307   1.00
C6       0.87855    0.70618    0.59802   1.00
C6       0.91141    0.68344    0.52523   1.00
C6       0.83488    0.62748    0.38806   1.00
H2       0.84958    0.60017    0.44209   1.00
C6       0.81494    0.56052    0.40853   1.00
H2       0.81874    0.61686    0.51642   1.00
C6       0.75904    0.61170    0.53366   1.00
C6       0.79996    0.55828    0.50664   1.00
H2       0.74818    0.64700    0.41169   1.00
C6       0.72378    0.59036    0.42228   1.00
C6       0.70991    0.64943    0.46151   1.00
C6       0.86705    0.76940    0.48929   1.00
C6       0.85266    0.79060    0.55775   1.00
H2       0.90562    0.76642    0.53788   1.00
H2       0.85514    0.72445    0.60949   1.00
C6       0.87169    0.66483    0.61622   1.00
C6       0.91734    0.72207    0.61607   1.00
H2       0.91809    0.66045    0.54625   1.00
C6       0.90137    0.66153    0.48664   1.00
C6       0.95080    0.70531    0.51756   1.00
H2       0.84704    0.65570    0.39654   1.00
H2       0.80980    0.63283    0.36910   1.00
H2       0.85730    0.61269    0.37083   1.00
H2       0.84251    0.54511    0.40392   1.00
H2       0.79739    0.54292    0.42822   1.00
H2       0.80004    0.56100    0.38036   1.00
H2       0.76778    0.60364    0.56328   1.00
H2       0.75144    0.64251    0.53468   1.00
H2       0.73292    0.59496    0.52648   1.00
H2       0.82661    0.54986    0.49138   1.00
H2       0.80373    0.54888    0.53692   1.00
H2       0.77541    0.54196    0.49450   1.00
H2       0.72367    0.56787    0.44486   1.00
H2       0.69359    0.59497    0.41292   1.00
H2       0.73878    0.57921    0.39668   1.00
H2       0.69493    0.62915    0.48098   1.00
H2       0.72018    0.67343    0.47932   1.00
H2       0.68790    0.66140    0.44172   1.00
H2       0.83594    0.77146    0.48312   1.00
H2       0.87989    0.79766    0.48191   1.00
H2       0.87970    0.74801    0.46952   1.00
H2       0.86109    0.82005    0.54875   1.00
H2       0.82118    0.78854    0.55426   1.00
H2       0.85943    0.78850    0.58878   1.00
H2       0.86917    0.66691    0.64798   1.00
H2       0.84456    0.65181    0.60565   1.00
H2       0.89555    0.64479    0.60965   1.00
H2       0.92392    0.75150    0.60584   1.00
H2       0.91500    0.72360    0.64788   1.00
H2       0.94202    0.70314    0.60915   1.00
H2       0.89265    0.68148    0.46344   1.00
H2       0.92601    0.64421    0.47619   1.00
H2       0.87741    0.64143    0.49166   1.00
H2       0.97383    0.68472    0.50956   1.00
H2       0.94799    0.72637    0.49378   1.00
H2       0.96093    0.72079    0.54343   1.00
C4       0.24961    0.24698    1.02084   1.00
C4       0.24915    0.24755    0.97912   1.00
C3       0.22746    0.22040    1.04364   1.00
C3       0.22389    0.22405    0.95616   1.00
C3       0.27296    0.27481    1.04123   1.00
C3       0.27534    0.27282    0.95886   1.00
C2       0.25062    0.24898    1.10512   1.00
C2       0.24938    0.25102    0.89488   1.00
C3       0.22777    0.22149    1.08462   1.00
C3       0.22424    0.22546    0.91519   1.00
C3       0.27343    0.27496    1.08258   1.00
C3       0.27406    0.27501    0.91762   1.00
H1       0.21057    0.19938    1.03115   1.00
H1       0.20433    0.20540    0.96852   1.00
C5       0.29581    0.30220    1.02020   1.00
C5       0.30242    0.29603    0.97980   1.00
H1       0.21094    0.20172    1.09955   1.00
H1       0.20555    0.20755    0.90010   1.00
H1       0.29114    0.29437    1.09680   1.00
H1       0.29122    0.29504    0.90368   1.00
O3       0.31303    0.33291    1.03961   1.00
O3       0.33289    0.31460    0.96099   1.00
Si1      0.29046    0.37478    1.04247   1.00
Si1      0.37304    0.29034    0.95279   1.00
C6       0.32304    0.39735    1.07538   1.00
C6       0.29273    0.39670    0.99598   1.00
C6       0.24315    0.37110    1.06253   1.00
C6       0.37496    0.24077    0.96693   1.00
C6       0.37855    0.29382    0.90198   1.00
C6       0.41141    0.31656    0.97477   1.00
C6       0.33488    0.37252    1.11194   1.00
H2       0.34958    0.39983    1.05791   1.00
C6       0.31494    0.43948    1.09147   1.00
H2       0.31874    0.38314    0.98358   1.00
C6       0.25904    0.38830    0.96634   1.00
C6       0.29996    0.44172    0.99336   1.00
H2       0.24818    0.35300    1.08831   1.00
C6       0.22378    0.40964    1.07772   1.00
C6       0.20991    0.35057    1.03849   1.00
C6       0.36705    0.23060    1.01071   1.00
C6       0.35266    0.20940    0.94225   1.00
H2       0.40562    0.23358    0.96212   1.00
H2       0.35514    0.27555    0.89051   1.00
C6       0.37169    0.33517    0.88378   1.00
C6       0.41734    0.27793    0.88393   1.00
H2       0.41809    0.33955    0.95375   1.00
C6       0.40137    0.33847    1.01336   1.00
C6       0.45080    0.29469    0.98244   1.00
H2       0.34704    0.34430    1.10346   1.00
H2       0.30980    0.36717    1.13090   1.00
H2       0.35730    0.38731    1.12917   1.00
H2       0.34251    0.45489    1.09608   1.00
H2       0.29739    0.45708    1.07178   1.00
H2       0.30004    0.43900    1.11964   1.00
H2       0.26778    0.39636    0.93672   1.00
H2       0.25144    0.35749    0.96532   1.00
H2       0.23292    0.40504    0.97352   1.00
H2       0.32661    0.45014    1.00862   1.00
H2       0.30373    0.45112    0.96308   1.00
H2       0.27541    0.45804    1.00550   1.00
H2       0.22367    0.43213    1.05514   1.00
H2       0.19359    0.40503    1.08708   1.00
H2       0.23878    0.42079    1.10332   1.00
H2       0.19493    0.37085    1.01902   1.00
H2       0.22018    0.32657    1.02068   1.00
H2       0.18790    0.33860    1.05828   1.00
H2       0.33594    0.22854    1.01688   1.00
H2       0.37989    0.20234    1.01809   1.00
H2       0.37970    0.25199    1.03048   1.00
H2       0.36109    0.17995    0.95125   1.00
H2       0.32118    0.21146    0.94574   1.00
H2       0.35943    0.21150    0.91122   1.00
H2       0.36917    0.33309    0.85202   1.00
H2       0.34456    0.34819    0.89435   1.00
H2       0.39555    0.35521    0.89035   1.00
H2       0.42392    0.24850    0.89416   1.00
H2       0.41500    0.27640    0.85212   1.00
H2       0.44202    0.29686    0.89085   1.00
H2       0.39265    0.31852    1.03656   1.00
H2       0.42601    0.35579    1.02381   1.00
H2       0.37741    0.35857    1.00834   1.00
H2       0.47383    0.31528    0.99044   1.00
H2       0.44799    0.27363    1.00622   1.00
H2       0.46093    0.27921    0.95657   1.00
C4       0.24698    0.52084    0.74961   1.00
C4       0.24755    0.47912    0.74915   1.00
C3       0.22040    0.54364    0.72746   1.00
C3       0.22405    0.45616    0.72389   1.00
C3       0.27481    0.54123    0.77296   1.00
C3       0.27282    0.45886    0.77534   1.00
C2       0.24898    0.60512    0.75062   1.00
C2       0.25102    0.39488    0.74938   1.00
C3       0.22149    0.58462    0.72777   1.00
C3       0.22546    0.41519    0.72424   1.00
C3       0.27496    0.58258    0.77343   1.00
C3       0.27501    0.41762    0.77406   1.00
H1       0.19938    0.53115    0.71057   1.00
H1       0.20540    0.46852    0.70433   1.00
C5       0.30220    0.52020    0.79581   1.00
C5       0.29603    0.47980    0.80242   1.00
H1       0.20172    0.59955    0.71094   1.00
H1       0.20755    0.40010    0.70555   1.00
H1       0.29437    0.59680    0.79114   1.00
H1       0.29504    0.40368    0.79122   1.00
O3       0.33291    0.53961    0.81303   1.00
O3       0.31460    0.46099    0.83289   1.00
Si1      0.37478    0.54247    0.79046   1.00
Si1      0.29034    0.45279    0.87304   1.00
C6       0.39735    0.57538    0.82304   1.00
C6       0.39670    0.49598    0.79273   1.00
C6       0.37110    0.56253    0.74315   1.00
C6       0.24077    0.46693    0.87496   1.00
C6       0.29382    0.40198    0.87855   1.00
C6       0.31656    0.47477    0.91141   1.00
C6       0.37252    0.61194    0.83488   1.00
H2       0.39983    0.55791    0.84958   1.00
C6       0.43948    0.59147    0.81494   1.00
H2       0.38314    0.48358    0.81874   1.00
C6       0.38830    0.46634    0.75904   1.00
C6       0.44172    0.49336    0.79996   1.00
H2       0.35300    0.58831    0.74818   1.00
C6       0.40964    0.57772    0.72378   1.00
C6       0.35057    0.53849    0.70991   1.00
C6       0.23060    0.51071    0.86705   1.00
C6       0.20940    0.44225    0.85266   1.00
H2       0.23358    0.46212    0.90562   1.00
H2       0.27555    0.39051    0.85514   1.00
C6       0.33517    0.38378    0.87169   1.00
C6       0.27793    0.38393    0.91734   1.00
H2       0.33955    0.45375    0.91809   1.00
C6       0.33847    0.51336    0.90137   1.00
C6       0.29469    0.48244    0.95080   1.00
H2       0.34430    0.60346    0.84704   1.00
H2       0.36717    0.63090    0.80980   1.00
H2       0.38731    0.62917    0.85730   1.00
H2       0.45489    0.59608    0.84251   1.00
H2       0.45708    0.57178    0.79739   1.00
H2       0.43900    0.61964    0.80004   1.00
H2       0.39636    0.43672    0.76778   1.00
H2       0.35749    0.46532    0.75144   1.00
H2       0.40504    0.47352    0.73292   1.00
H2       0.45014    0.50862    0.82661   1.00
H2       0.45112    0.46308    0.80373   1.00
H2       0.45804    0.50550    0.77541   1.00
H2       0.43213    0.55514    0.72367   1.00
H2       0.40503    0.58708    0.69359   1.00
H2       0.42079    0.60332    0.73878   1.00
H2       0.37085    0.51902    0.69493   1.00
H2       0.32657    0.52068    0.72018   1.00
H2       0.33860    0.55828    0.68790   1.00
H2       0.22854    0.51688    0.83594   1.00
H2       0.20234    0.51809    0.87989   1.00
H2       0.25199    0.53048    0.87970   1.00
H2       0.17995    0.45125    0.86109   1.00
H2       0.21146    0.44574    0.82118   1.00
H2       0.21150    0.41122    0.85943   1.00
H2       0.33309    0.35202    0.86917   1.00
H2       0.34819    0.39435    0.84456   1.00
H2       0.35521    0.39035    0.89555   1.00
H2       0.24850    0.39416    0.92392   1.00
H2       0.27640    0.35212    0.91500   1.00
H2       0.29686    0.39085    0.94202   1.00
H2       0.31852    0.53656    0.89265   1.00
H2       0.35579    0.52381    0.92601   1.00
H2       0.35857    0.50834    0.87741   1.00
H2       0.31528    0.49044    0.97383   1.00
H2       0.27363    0.50622    0.94799   1.00
H2       0.27921    0.45657    0.96093   1.00
C4       -0.02084   0.24961    0.75302   1.00
C4       0.02088    0.24915    0.75245   1.00
C3       -0.04364   0.22746    0.77960   1.00
C3       0.04384    0.22389    0.77595   1.00
C3       -0.04123   0.27296    0.72519   1.00
C3       0.04114    0.27534    0.72718   1.00
C2       -0.10512   0.25062    0.75102   1.00
C2       0.10512    0.24938    0.74898   1.00
C3       -0.08462   0.22777    0.77851   1.00
C3       0.08481    0.22424    0.77454   1.00
C3       -0.08258   0.27343    0.72504   1.00
C3       0.08238    0.27406    0.72499   1.00
H1       -0.03115   0.21057    0.80062   1.00
H1       0.03148    0.20433    0.79460   1.00
C5       -0.02020   0.29581    0.69780   1.00
C5       0.02020    0.30242    0.70397   1.00
H1       -0.09955   0.21094    0.79828   1.00
H1       0.09990    0.20555    0.79245   1.00
H1       -0.09680   0.29114    0.70563   1.00
H1       0.09632    0.29122    0.70496   1.00
O3       -0.03961   0.31303    0.66709   1.00
O3       0.03901    0.33289    0.68540   1.00
Si1      -0.04247   0.29046    0.62522   1.00
Si1      0.04721    0.37304    0.70966   1.00
C6       -0.07538   0.32304    0.60265   1.00
C6       0.00402    0.29273    0.60330   1.00
C6       -0.06253   0.24315    0.62890   1.00
C6       0.03307    0.37496    0.75923   1.00
C6       0.09802    0.37855    0.70618   1.00
C6       0.02523    0.41141    0.68344   1.00
C6       -0.11194   0.33488    0.62748   1.00
H2       -0.05791   0.34958    0.60017   1.00
C6       -0.09147   0.31494    0.56052   1.00
H2       0.01642    0.31874    0.61686   1.00
C6       0.03366    0.25904    0.61170   1.00
C6       0.00664    0.29996    0.55828   1.00
H2       -0.08831   0.24818    0.64700   1.00
C6       -0.07772   0.22378    0.59036   1.00
C6       -0.03849   0.20991    0.64943   1.00
C6       -0.01071   0.36705    0.76940   1.00
C6       0.05775    0.35266    0.79060   1.00
H2       0.03788    0.40562    0.76642   1.00
H2       0.10949    0.35514    0.72445   1.00
C6       0.11622    0.37169    0.66483   1.00
C6       0.11607    0.41734    0.72207   1.00
H2       0.04625    0.41809    0.66045   1.00
C6       -0.01336   0.40137    0.66153   1.00
C6       0.01756    0.45080    0.70531   1.00
H2       -0.10346   0.34704    0.65570   1.00
H2       -0.13090   0.30980    0.63283   1.00
H2       -0.12917   0.35730    0.61269   1.00
H2       -0.09608   0.34251    0.54511   1.00
H2       -0.07178   0.29739    0.54292   1.00
H2       -0.11964   0.30004    0.56100   1.00
H2       0.06328    0.26778    0.60364   1.00
H2       0.03468    0.25144    0.64251   1.00
H2       0.02648    0.23292    0.59496   1.00
H2       -0.00862   0.32661    0.54986   1.00
H2       0.03692    0.30373    0.54888   1.00
H2       -0.00550   0.27541    0.54196   1.00
H2       -0.05514   0.22367    0.56787   1.00
H2       -0.08708   0.19359    0.59497   1.00
H2       -0.10332   0.23878    0.57921   1.00
H2       -0.01902   0.19493    0.62915   1.00
H2       -0.02068   0.22018    0.67343   1.00
H2       -0.05828   0.18790    0.66140   1.00
H2       -0.01688   0.33594    0.77146   1.00
H2       -0.01809   0.37989    0.79766   1.00
H2       -0.03048   0.37970    0.74801   1.00
H2       0.04875    0.36109    0.82005   1.00
H2       0.05426    0.32118    0.78854   1.00
H2       0.08878    0.35943    0.78850   1.00
H2       0.14798    0.36917    0.66691   1.00
H2       0.10565    0.34456    0.65181   1.00
H2       0.10965    0.39555    0.64479   1.00
H2       0.10584    0.42392    0.75150   1.00
H2       0.14788    0.41500    0.72360   1.00
H2       0.10915    0.44202    0.70314   1.00
H2       -0.03656   0.39265    0.68148   1.00
H2       -0.02381   0.42601    0.64421   1.00
H2       -0.00834   0.37741    0.64143   1.00
H2       0.00956    0.47383    0.68472   1.00
H2       -0.00622   0.44799    0.72637   1.00
H2       0.04343    0.46093    0.72079   1.00
C4       0.52084    0.24961    0.74698   1.00
C4       0.47912    0.24915    0.74755   1.00
C3       0.54364    0.22746    0.72040   1.00
C3       0.45616    0.22389    0.72405   1.00
C3       0.54123    0.27296    0.77481   1.00
C3       0.45886    0.27534    0.77282   1.00
C2       0.60512    0.25062    0.74898   1.00
C2       0.39488    0.24938    0.75102   1.00
C3       0.58462    0.22777    0.72149   1.00
C3       0.41519    0.22424    0.72546   1.00
C3       0.58258    0.27343    0.77496   1.00
C3       0.41762    0.27406    0.77501   1.00
H1       0.53115    0.21057    0.69938   1.00
H1       0.46852    0.20433    0.70540   1.00
C5       0.52020    0.29581    0.80220   1.00
C5       0.47980    0.30242    0.79603   1.00
H1       0.59955    0.21094    0.70172   1.00
H1       0.40010    0.20555    0.70755   1.00
H1       0.59680    0.29114    0.79437   1.00
H1       0.40368    0.29122    0.79504   1.00
O3       0.53961    0.31303    0.83291   1.00
O3       0.46099    0.33289    0.81460   1.00
Si1      0.54247    0.29046    0.87478   1.00
Si1      0.45279    0.37304    0.79034   1.00
C6       0.57538    0.32304    0.89735   1.00
C6       0.49598    0.29273    0.89670   1.00
C6       0.56253    0.24315    0.87110   1.00
C6       0.46693    0.37496    0.74077   1.00
C6       0.40198    0.37855    0.79382   1.00
C6       0.47477    0.41141    0.81656   1.00
C6       0.61194    0.33488    0.87252   1.00
H2       0.55791    0.34958    0.89983   1.00
C6       0.59147    0.31494    0.93948   1.00
H2       0.48358    0.31874    0.88314   1.00
C6       0.46634    0.25904    0.88830   1.00
C6       0.49336    0.29996    0.94172   1.00
H2       0.58831    0.24818    0.85300   1.00
C6       0.57772    0.22378    0.90964   1.00
C6       0.53849    0.20991    0.85057   1.00
C6       0.51071    0.36705    0.73060   1.00
C6       0.44225    0.35266    0.70940   1.00
H2       0.46212    0.40562    0.73358   1.00
H2       0.39051    0.35514    0.77555   1.00
C6       0.38378    0.37169    0.83517   1.00
C6       0.38393    0.41734    0.77793   1.00
H2       0.45375    0.41809    0.83955   1.00
C6       0.51336    0.40137    0.83847   1.00
C6       0.48244    0.45080    0.79469   1.00
H2       0.60346    0.34704    0.84430   1.00
H2       0.63090    0.30980    0.86717   1.00
H2       0.62917    0.35730    0.88731   1.00
H2       0.59608    0.34251    0.95489   1.00
H2       0.57178    0.29739    0.95708   1.00
H2       0.61964    0.30004    0.93900   1.00
H2       0.43672    0.26778    0.89636   1.00
H2       0.46532    0.25144    0.85749   1.00
H2       0.47352    0.23292    0.90504   1.00
H2       0.50862    0.32661    0.95014   1.00
H2       0.46308    0.30373    0.95112   1.00
H2       0.50550    0.27541    0.95804   1.00
H2       0.55514    0.22367    0.93213   1.00
H2       0.58708    0.19359    0.90503   1.00
H2       0.60332    0.23878    0.92079   1.00
H2       0.51902    0.19493    0.87085   1.00
H2       0.52068    0.22018    0.82657   1.00
H2       0.55828    0.18790    0.83860   1.00
H2       0.51688    0.33594    0.72854   1.00
H2       0.51809    0.37989    0.70234   1.00
H2       0.53048    0.37970    0.75199   1.00
H2       0.45125    0.36109    0.67995   1.00
H2       0.44574    0.32118    0.71146   1.00
H2       0.41122    0.35943    0.71150   1.00
H2       0.35202    0.36917    0.83309   1.00
H2       0.39435    0.34456    0.84819   1.00
H2       0.39035    0.39555    0.85521   1.00
H2       0.39416    0.42392    0.74850   1.00
H2       0.35212    0.41500    0.77640   1.00
H2       0.39085    0.44202    0.79686   1.00
H2       0.53656    0.39265    0.81852   1.00
H2       0.52381    0.42601    0.85579   1.00
H2       0.50834    0.37741    0.85857   1.00
H2       0.49044    0.47383    0.81528   1.00
H2       0.50622    0.44799    0.77363   1.00
H2       0.45657    0.46093    0.77921   1.00
C4       0.25302    -0.02084   0.74961   1.00
C4       0.25245    0.02088    0.74915   1.00
C3       0.27960    -0.04364   0.72746   1.00
C3       0.27595    0.04384    0.72389   1.00
C3       0.22519    -0.04123   0.77296   1.00
C3       0.22718    0.04114    0.77534   1.00
C2       0.25102    -0.10512   0.75062   1.00
C2       0.24898    0.10512    0.74938   1.00
C3       0.27851    -0.08462   0.72777   1.00
C3       0.27454    0.08481    0.72424   1.00
C3       0.22504    -0.08258   0.77343   1.00
C3       0.22499    0.08238    0.77406   1.00
H1       0.30062    -0.03115   0.71057   1.00
H1       0.29460    0.03148    0.70433   1.00
C5       0.19780    -0.02020   0.79581   1.00
C5       0.20397    0.02020    0.80242   1.00
H1       0.29828    -0.09955   0.71094   1.00
H1       0.29245    0.09990    0.70555   1.00
H1       0.20563    -0.09680   0.79114   1.00
H1       0.20496    0.09632    0.79122   1.00
O3       0.16709    -0.03961   0.81303   1.00
O3       0.18540    0.03901    0.83289   1.00
Si1      0.12522    -0.04247   0.79046   1.00
Si1      0.20966    0.04721    0.87304   1.00
C6       0.10265    -0.07538   0.82304   1.00
C6       0.10330    0.00402    0.79273   1.00
C6       0.12890    -0.06253   0.74315   1.00
C6       0.25923    0.03307    0.87496   1.00
C6       0.20618    0.09802    0.87855   1.00
C6       0.18344    0.02523    0.91141   1.00
C6       0.12748    -0.11194   0.83488   1.00
H2       0.10017    -0.05791   0.84958   1.00
C6       0.06052    -0.09147   0.81494   1.00
H2       0.11686    0.01642    0.81874   1.00
C6       0.11170    0.03366    0.75904   1.00
C6       0.05828    0.00664    0.79996   1.00
H2       0.14700    -0.08831   0.74818   1.00
C6       0.09036    -0.07772   0.72378   1.00
C6       0.14943    -0.03849   0.70991   1.00
C6       0.26940    -0.01071   0.86705   1.00
C6       0.29060    0.05775    0.85266   1.00
H2       0.26642    0.03788    0.90562   1.00
H2       0.22445    0.10949    0.85514   1.00
C6       0.16483    0.11622    0.87169   1.00
C6       0.22207    0.11607    0.91734   1.00
H2       0.16045    0.04625    0.91809   1.00
C6       0.16153    -0.01336   0.90137   1.00
C6       0.20531    0.01756    0.95080   1.00
H2       0.15570    -0.10346   0.84704   1.00
H2       0.13283    -0.13090   0.80980   1.00
H2       0.11269    -0.12917   0.85730   1.00
H2       0.04511    -0.09608   0.84251   1.00
H2       0.04292    -0.07178   0.79739   1.00
H2       0.06100    -0.11964   0.80004   1.00
H2       0.10364    0.06328    0.76778   1.00
H2       0.14251    0.03468    0.75144   1.00
H2       0.09496    0.02648    0.73292   1.00
H2       0.04986    -0.00862   0.82661   1.00
H2       0.04888    0.03692    0.80373   1.00
H2       0.04196    -0.00550   0.77541   1.00
H2       0.06787    -0.05514   0.72367   1.00
H2       0.09497    -0.08708   0.69359   1.00
H2       0.07921    -0.10332   0.73878   1.00
H2       0.12915    -0.01902   0.69493   1.00
H2       0.17343    -0.02068   0.72018   1.00
H2       0.16140    -0.05828   0.68790   1.00
H2       0.27146    -0.01688   0.83594   1.00
H2       0.29766    -0.01809   0.87989   1.00
H2       0.24801    -0.03048   0.87970   1.00
H2       0.32005    0.04875    0.86109   1.00
H2       0.28854    0.05426    0.82118   1.00
H2       0.28850    0.08878    0.85943   1.00
H2       0.16691    0.14798    0.86917   1.00
H2       0.15181    0.10565    0.84456   1.00
H2       0.14479    0.10965    0.89555   1.00
H2       0.25150    0.10584    0.92392   1.00
H2       0.22360    0.14788    0.91500   1.00
H2       0.20314    0.10915    0.94202   1.00
H2       0.18148    -0.03656   0.89265   1.00
H2       0.14421    -0.02381   0.92601   1.00
H2       0.14143    -0.00834   0.87741   1.00
H2       0.18472    0.00956    0.97383   1.00
H2       0.22637    -0.00622   0.94799   1.00
H2       0.22079    0.04343    0.96093   1.00
C4       0.24961    0.25302    0.47916   1.00
C4       0.24915    0.25245    0.52088   1.00
C3       0.22746    0.27960    0.45636   1.00
C3       0.22389    0.27595    0.54384   1.00
C3       0.27296    0.22519    0.45877   1.00
C3       0.27534    0.22718    0.54114   1.00
C2       0.25062    0.25102    0.39488   1.00
C2       0.24938    0.24898    0.60512   1.00
C3       0.22777    0.27851    0.41538   1.00
C3       0.22424    0.27454    0.58481   1.00
C3       0.27343    0.22504    0.41742   1.00
C3       0.27406    0.22499    0.58238   1.00
H1       0.21057    0.30062    0.46885   1.00
H1       0.20433    0.29460    0.53148   1.00
C5       0.29581    0.19780    0.47980   1.00
C5       0.30242    0.20397    0.52020   1.00
H1       0.21094    0.29828    0.40045   1.00
H1       0.20555    0.29245    0.59990   1.00
H1       0.29114    0.20563    0.40320   1.00
H1       0.29122    0.20496    0.59632   1.00
O3       0.31303    0.16709    0.46039   1.00
O3       0.33289    0.18540    0.53901   1.00
Si1      0.29046    0.12522    0.45753   1.00
Si1      0.37304    0.20966    0.54721   1.00
C6       0.32304    0.10265    0.42462   1.00
C6       0.29273    0.10330    0.50402   1.00
C6       0.24315    0.12890    0.43747   1.00
C6       0.37496    0.25923    0.53307   1.00
C6       0.37855    0.20618    0.59802   1.00
C6       0.41141    0.18344    0.52523   1.00
C6       0.33488    0.12748    0.38806   1.00
H2       0.34958    0.10017    0.44209   1.00
C6       0.31494    0.06052    0.40853   1.00
H2       0.31874    0.11686    0.51642   1.00
C6       0.25904    0.11170    0.53366   1.00
C6       0.29996    0.05828    0.50664   1.00
H2       0.24818    0.14700    0.41169   1.00
C6       0.22378    0.09036    0.42228   1.00
C6       0.20991    0.14943    0.46151   1.00
C6       0.36705    0.26940    0.48929   1.00
C6       0.35266    0.29060    0.55775   1.00
H2       0.40562    0.26642    0.53788   1.00
H2       0.35514    0.22445    0.60949   1.00
C6       0.37169    0.16483    0.61622   1.00
C6       0.41734    0.22207    0.61607   1.00
H2       0.41809    0.16045    0.54625   1.00
C6       0.40137    0.16153    0.48664   1.00
C6       0.45080    0.20531    0.51756   1.00
H2       0.34704    0.15570    0.39654   1.00
H2       0.30980    0.13283    0.36910   1.00
H2       0.35730    0.11269    0.37083   1.00
H2       0.34251    0.04511    0.40392   1.00
H2       0.29739    0.04292    0.42822   1.00
H2       0.30004    0.06100    0.38036   1.00
H2       0.26778    0.10364    0.56328   1.00
H2       0.25144    0.14251    0.53468   1.00
H2       0.23292    0.09496    0.52648   1.00
H2       0.32661    0.04986    0.49138   1.00
H2       0.30373    0.04888    0.53692   1.00
H2       0.27541    0.04196    0.49450   1.00
H2       0.22367    0.06787    0.44486   1.00
H2       0.19359    0.09497    0.41292   1.00
H2       0.23878    0.07921    0.39668   1.00
H2       0.19493    0.12915    0.48098   1.00
H2       0.22018    0.17343    0.47932   1.00
H2       0.18790    0.16140    0.44172   1.00
H2       0.33594    0.27146    0.48312   1.00
H2       0.37989    0.29766    0.48191   1.00
H2       0.37970    0.24801    0.46952   1.00
H2       0.36109    0.32005    0.54875   1.00
H2       0.32118    0.28854    0.55426   1.00
H2       0.35943    0.28850    0.58878   1.00
H2       0.36917    0.16691    0.64798   1.00
H2       0.34456    0.15181    0.60565   1.00
H2       0.39555    0.14479    0.60965   1.00
H2       0.42392    0.25150    0.60584   1.00
H2       0.41500    0.22360    0.64788   1.00
H2       0.44202    0.20314    0.60915   1.00
H2       0.39265    0.18148    0.46344   1.00
H2       0.42601    0.14421    0.47619   1.00
H2       0.37741    0.14143    0.49166   1.00
H2       0.47383    0.18472    0.50956   1.00
H2       0.44799    0.22637    0.49378   1.00
H2       0.46093    0.22079    0.54343   1.00
C4       0.24961    0.74698    0.52084   1.00
C4       0.24915    0.74755    0.47912   1.00
C3       0.22746    0.72040    0.54364   1.00
C3       0.22389    0.72405    0.45616   1.00
C3       0.27296    0.77481    0.54123   1.00
C3       0.27534    0.77282    0.45886   1.00
C2       0.25062    0.74898    0.60512   1.00
C2       0.24938    0.75102    0.39488   1.00
C3       0.22777    0.72149    0.58462   1.00
C3       0.22424    0.72546    0.41519   1.00
C3       0.27343    0.77496    0.58258   1.00
C3       0.27406    0.77501    0.41762   1.00
H1       0.21057    0.69938    0.53115   1.00
H1       0.20433    0.70540    0.46852   1.00
C5       0.29581    0.80220    0.52020   1.00
C5       0.30242    0.79603    0.47980   1.00
H1       0.21094    0.70172    0.59955   1.00
H1       0.20555    0.70755    0.40010   1.00
H1       0.29114    0.79437    0.59680   1.00
H1       0.29122    0.79504    0.40368   1.00
O3       0.31303    0.83291    0.53961   1.00
O3       0.33289    0.81460    0.46099   1.00
Si1      0.29046    0.87478    0.54247   1.00
Si1      0.37304    0.79034    0.45279   1.00
C6       0.32304    0.89735    0.57538   1.00
C6       0.29273    0.89670    0.49598   1.00
C6       0.24315    0.87110    0.56253   1.00
C6       0.37496    0.74077    0.46693   1.00
C6       0.37855    0.79382    0.40198   1.00
C6       0.41141    0.81656    0.47477   1.00
C6       0.33488    0.87252    0.61194   1.00
H2       0.34958    0.89983    0.55791   1.00
C6       0.31494    0.93948    0.59147   1.00
H2       0.31874    0.88314    0.48358   1.00
C6       0.25904    0.88830    0.46634   1.00
C6       0.29996    0.94172    0.49336   1.00
H2       0.24818    0.85300    0.58831   1.00
C6       0.22378    0.90964    0.57772   1.00
C6       0.20991    0.85057    0.53849   1.00
C6       0.36705    0.73060    0.51071   1.00
C6       0.35266    0.70940    0.44225   1.00
H2       0.40562    0.73358    0.46212   1.00
H2       0.35514    0.77555    0.39051   1.00
C6       0.37169    0.83517    0.38378   1.00
C6       0.41734    0.77793    0.38393   1.00
H2       0.41809    0.83955    0.45375   1.00
C6       0.40137    0.83847    0.51336   1.00
C6       0.45080    0.79469    0.48244   1.00
H2       0.34704    0.84430    0.60346   1.00
H2       0.30980    0.86717    0.63090   1.00
H2       0.35730    0.88731    0.62917   1.00
H2       0.34251    0.95489    0.59608   1.00
H2       0.29739    0.95708    0.57178   1.00
H2       0.30004    0.93900    0.61964   1.00
H2       0.26778    0.89636    0.43672   1.00
H2       0.25144    0.85749    0.46532   1.00
H2       0.23292    0.90504    0.47352   1.00
H2       0.32661    0.95014    0.50862   1.00
H2       0.30373    0.95112    0.46308   1.00
H2       0.27541    0.95804    0.50550   1.00
H2       0.22367    0.93213    0.55514   1.00
H2       0.19359    0.90503    0.58708   1.00
H2       0.23878    0.92079    0.60332   1.00
H2       0.19493    0.87085    0.51902   1.00
H2       0.22018    0.82657    0.52068   1.00
H2       0.18790    0.83860    0.55828   1.00
H2       0.33594    0.72854    0.51688   1.00
H2       0.37989    0.70234    0.51809   1.00
H2       0.37970    0.75199    0.53048   1.00
H2       0.36109    0.67995    0.45125   1.00
H2       0.32118    0.71146    0.44574   1.00
H2       0.35943    0.71150    0.41122   1.00
H2       0.36917    0.83309    0.35202   1.00
H2       0.34456    0.84819    0.39435   1.00
H2       0.39555    0.85521    0.39035   1.00
H2       0.42392    0.74850    0.39416   1.00
H2       0.41500    0.77640    0.35212   1.00
H2       0.44202    0.79686    0.39085   1.00
H2       0.39265    0.81852    0.53656   1.00
H2       0.42601    0.85579    0.52381   1.00
H2       0.37741    0.85857    0.50834   1.00
H2       0.47383    0.81528    0.49044   1.00
H2       0.44799    0.77363    0.50622   1.00
H2       0.46093    0.77921    0.45657   1.00
C4       0.24698    1.02084    0.24961   1.00
C4       0.24755    0.97912    0.24915   1.00
C3       0.22040    1.04364    0.22746   1.00
C3       0.22405    0.95616    0.22389   1.00
C3       0.27481    1.04123    0.27296   1.00
C3       0.27282    0.95886    0.27534   1.00
C2       0.24898    1.10512    0.25062   1.00
C2       0.25102    0.89488    0.24938   1.00
C3       0.22149    1.08462    0.22777   1.00
C3       0.22546    0.91519    0.22424   1.00
C3       0.27496    1.08258    0.27343   1.00
C3       0.27501    0.91762    0.27406   1.00
H1       0.19938    1.03115    0.21057   1.00
H1       0.20540    0.96852    0.20433   1.00
C5       0.30220    1.02020    0.29581   1.00
C5       0.29603    0.97980    0.30242   1.00
H1       0.20172    1.09955    0.21094   1.00
H1       0.20755    0.90010    0.20555   1.00
H1       0.29437    1.09680    0.29114   1.00
H1       0.29504    0.90368    0.29122   1.00
O3       0.33291    1.03961    0.31303   1.00
O3       0.31460    0.96099    0.33289   1.00
Si1      0.37478    1.04247    0.29046   1.00
Si1      0.29034    0.95279    0.37304   1.00
C6       0.39735    1.07538    0.32304   1.00
C6       0.39670    0.99598    0.29273   1.00
C6       0.37110    1.06253    0.24315   1.00
C6       0.24077    0.96693    0.37496   1.00
C6       0.29382    0.90198    0.37855   1.00
C6       0.31656    0.97477    0.41141   1.00
C6       0.37252    1.11194    0.33488   1.00
H2       0.39983    1.05791    0.34958   1.00
C6       0.43948    1.09147    0.31494   1.00
H2       0.38314    0.98358    0.31874   1.00
C6       0.38830    0.96634    0.25904   1.00
C6       0.44172    0.99336    0.29996   1.00
H2       0.35300    1.08831    0.24818   1.00
C6       0.40964    1.07772    0.22378   1.00
C6       0.35057    1.03849    0.20991   1.00
C6       0.23060    1.01071    0.36705   1.00
C6       0.20940    0.94225    0.35266   1.00
H2       0.23358    0.96212    0.40562   1.00
H2       0.27555    0.89051    0.35514   1.00
C6       0.33517    0.88378    0.37169   1.00
C6       0.27793    0.88393    0.41734   1.00
H2       0.33955    0.95375    0.41809   1.00
C6       0.33847    1.01336    0.40137   1.00
C6       0.29469    0.98244    0.45080   1.00
H2       0.34430    1.10346    0.34704   1.00
H2       0.36717    1.13090    0.30980   1.00
H2       0.38731    1.12917    0.35730   1.00
H2       0.45489    1.09608    0.34251   1.00
H2       0.45708    1.07178    0.29739   1.00
H2       0.43900    1.11964    0.30004   1.00
H2       0.39636    0.93672    0.26778   1.00
H2       0.35749    0.96532    0.25144   1.00
H2       0.40504    0.97352    0.23292   1.00
H2       0.45014    1.00862    0.32661   1.00
H2       0.45112    0.96308    0.30373   1.00
H2       0.45804    1.00550    0.27541   1.00
H2       0.43213    1.05514    0.22367   1.00
H2       0.40503    1.08708    0.19359   1.00
H2       0.42079    1.10332    0.23878   1.00
H2       0.37085    1.01902    0.19493   1.00
H2       0.32657    1.02068    0.22018   1.00
H2       0.33860    1.05828    0.18790   1.00
H2       0.22854    1.01688    0.33594   1.00
H2       0.20234    1.01809    0.37989   1.00
H2       0.25199    1.03048    0.37970   1.00
H2       0.17995    0.95125    0.36109   1.00
H2       0.21146    0.94574    0.32118   1.00
H2       0.21150    0.91122    0.35943   1.00
H2       0.33309    0.85202    0.36917   1.00
H2       0.34819    0.89435    0.34456   1.00
H2       0.35521    0.89035    0.39555   1.00
H2       0.24850    0.89416    0.42392   1.00
H2       0.27640    0.85212    0.41500   1.00
H2       0.29686    0.89085    0.44202   1.00
H2       0.31852    1.03656    0.39265   1.00
H2       0.35579    1.02381    0.42601   1.00
H2       0.35857    1.00834    0.37741   1.00
H2       0.31528    0.99044    0.47383   1.00
H2       0.27363    1.00622    0.44799   1.00
H2       0.27921    0.95657    0.46093   1.00
C4       -0.02084   0.74961    0.25302   1.00
C4       0.02088    0.74915    0.25245   1.00
C3       -0.04364   0.72746    0.27960   1.00
C3       0.04384    0.72389    0.27595   1.00
C3       -0.04123   0.77296    0.22519   1.00
C3       0.04114    0.77534    0.22718   1.00
C2       -0.10512   0.75062    0.25102   1.00
C2       0.10512    0.74938    0.24898   1.00
C3       -0.08462   0.72777    0.27851   1.00
C3       0.08481    0.72424    0.27454   1.00
C3       -0.08258   0.77343    0.22504   1.00
C3       0.08238    0.77406    0.22499   1.00
H1       -0.03115   0.71057    0.30062   1.00
H1       0.03148    0.70433    0.29460   1.00
C5       -0.02020   0.79581    0.19780   1.00
C5       0.02020    0.80242    0.20397   1.00
H1       -0.09955   0.71094    0.29828   1.00
H1       0.09990    0.70555    0.29245   1.00
H1       -0.09680   0.79114    0.20563   1.00
H1       0.09632    0.79122    0.20496   1.00
O3       -0.03961   0.81303    0.16709   1.00
O3       0.03901    0.83289    0.18540   1.00
Si1      -0.04247   0.79046    0.12522   1.00
Si1      0.04721    0.87304    0.20966   1.00
C6       -0.07538   0.82304    0.10265   1.00
C6       0.00402    0.79273    0.10330   1.00
C6       -0.06253   0.74315    0.12890   1.00
C6       0.03307    0.87496    0.25923   1.00
C6       0.09802    0.87855    0.20618   1.00
C6       0.02523    0.91141    0.18344   1.00
C6       -0.11194   0.83488    0.12748   1.00
H2       -0.05791   0.84958    0.10017   1.00
C6       -0.09147   0.81494    0.06052   1.00
H2       0.01642    0.81874    0.11686   1.00
C6       0.03366    0.75904    0.11170   1.00
C6       0.00664    0.79996    0.05828   1.00
H2       -0.08831   0.74818    0.14700   1.00
C6       -0.07772   0.72378    0.09036   1.00
C6       -0.03849   0.70991    0.14943   1.00
C6       -0.01071   0.86705    0.26940   1.00
C6       0.05775    0.85266    0.29060   1.00
H2       0.03788    0.90562    0.26642   1.00
H2       0.10949    0.85514    0.22445   1.00
C6       0.11622    0.87169    0.16483   1.00
C6       0.11607    0.91734    0.22207   1.00
H2       0.04625    0.91809    0.16045   1.00
C6       -0.01336   0.90137    0.16153   1.00
C6       0.01756    0.95080    0.20531   1.00
H2       -0.10346   0.84704    0.15570   1.00
H2       -0.13090   0.80980    0.13283   1.00
H2       -0.12917   0.85730    0.11269   1.00
H2       -0.09608   0.84251    0.04511   1.00
H2       -0.07178   0.79739    0.04292   1.00
H2       -0.11964   0.80004    0.06100   1.00
H2       0.06328    0.76778    0.10364   1.00
H2       0.03468    0.75144    0.14251   1.00
H2       0.02648    0.73292    0.09496   1.00
H2       -0.00862   0.82661    0.04986   1.00
H2       0.03692    0.80373    0.04888   1.00
H2       -0.00550   0.77541    0.04196   1.00
H2       -0.05514   0.72367    0.06787   1.00
H2       -0.08708   0.69359    0.09497   1.00
H2       -0.10332   0.73878    0.07921   1.00
H2       -0.01902   0.69493    0.12915   1.00
H2       -0.02068   0.72018    0.17343   1.00
H2       -0.05828   0.68790    0.16140   1.00
H2       -0.01688   0.83594    0.27146   1.00
H2       -0.01809   0.87989    0.29766   1.00
H2       -0.03048   0.87970    0.24801   1.00
H2       0.04875    0.86109    0.32005   1.00
H2       0.05426    0.82118    0.28854   1.00
H2       0.08878    0.85943    0.28850   1.00
H2       0.14798    0.86917    0.16691   1.00
H2       0.10565    0.84456    0.15181   1.00
H2       0.10965    0.89555    0.14479   1.00
H2       0.10584    0.92392    0.25150   1.00
H2       0.14788    0.91500    0.22360   1.00
H2       0.10915    0.94202    0.20314   1.00
H2       -0.03656   0.89265    0.18148   1.00
H2       -0.02381   0.92601    0.14421   1.00
H2       -0.00834   0.87741    0.14143   1.00
H2       0.00956    0.97383    0.18472   1.00
H2       -0.00622   0.94799    0.22637   1.00
H2       0.04343    0.96093    0.22079   1.00
C4       0.52084    0.74961    0.24698   1.00
C4       0.47912    0.74915    0.24755   1.00
C3       0.54364    0.72746    0.22040   1.00
C3       0.45616    0.72389    0.22405   1.00
C3       0.54123    0.77296    0.27481   1.00
C3       0.45886    0.77534    0.27282   1.00
C2       0.60512    0.75062    0.24898   1.00
C2       0.39488    0.74938    0.25102   1.00
C3       0.58462    0.72777    0.22149   1.00
C3       0.41519    0.72424    0.22546   1.00
C3       0.58258    0.77343    0.27496   1.00
C3       0.41762    0.77406    0.27501   1.00
H1       0.53115    0.71057    0.19938   1.00
H1       0.46852    0.70433    0.20540   1.00
C5       0.52020    0.79581    0.30220   1.00
C5       0.47980    0.80242    0.29603   1.00
H1       0.59955    0.71094    0.20172   1.00
H1       0.40010    0.70555    0.20755   1.00
H1       0.59680    0.79114    0.29437   1.00
H1       0.40368    0.79122    0.29504   1.00
O3       0.53961    0.81303    0.33291   1.00
O3       0.46099    0.83289    0.31460   1.00
Si1      0.54247    0.79046    0.37478   1.00
Si1      0.45279    0.87304    0.29034   1.00
C6       0.57538    0.82304    0.39735   1.00
C6       0.49598    0.79273    0.39670   1.00
C6       0.56253    0.74315    0.37110   1.00
C6       0.46693    0.87496    0.24077   1.00
C6       0.40198    0.87855    0.29382   1.00
C6       0.47477    0.91141    0.31656   1.00
C6       0.61194    0.83488    0.37252   1.00
H2       0.55791    0.84958    0.39983   1.00
C6       0.59147    0.81494    0.43948   1.00
H2       0.48358    0.81874    0.38314   1.00
C6       0.46634    0.75904    0.38830   1.00
C6       0.49336    0.79996    0.44172   1.00
H2       0.58831    0.74818    0.35300   1.00
C6       0.57772    0.72378    0.40964   1.00
C6       0.53849    0.70991    0.35057   1.00
C6       0.51071    0.86705    0.23060   1.00
C6       0.44225    0.85266    0.20940   1.00
H2       0.46212    0.90562    0.23358   1.00
H2       0.39051    0.85514    0.27555   1.00
C6       0.38378    0.87169    0.33517   1.00
C6       0.38393    0.91734    0.27793   1.00
H2       0.45375    0.91809    0.33955   1.00
C6       0.51336    0.90137    0.33847   1.00
C6       0.48244    0.95080    0.29469   1.00
H2       0.60346    0.84704    0.34430   1.00
H2       0.63090    0.80980    0.36717   1.00
H2       0.62917    0.85730    0.38731   1.00
H2       0.59608    0.84251    0.45489   1.00
H2       0.57178    0.79739    0.45708   1.00
H2       0.61964    0.80004    0.43900   1.00
H2       0.43672    0.76778    0.39636   1.00
H2       0.46532    0.75144    0.35749   1.00
H2       0.47352    0.73292    0.40504   1.00
H2       0.50862    0.82661    0.45014   1.00
H2       0.46308    0.80373    0.45112   1.00
H2       0.50550    0.77541    0.45804   1.00
H2       0.55514    0.72367    0.43213   1.00
H2       0.58708    0.69359    0.40503   1.00
H2       0.60332    0.73878    0.42079   1.00
H2       0.51902    0.69493    0.37085   1.00
H2       0.52068    0.72018    0.32657   1.00
H2       0.55828    0.68790    0.33860   1.00
H2       0.51688    0.83594    0.22854   1.00
H2       0.51809    0.87989    0.20234   1.00
H2       0.53048    0.87970    0.25199   1.00
H2       0.45125    0.86109    0.17995   1.00
H2       0.44574    0.82118    0.21146   1.00
H2       0.41122    0.85943    0.21150   1.00
H2       0.35202    0.86917    0.33309   1.00
H2       0.39435    0.84456    0.34819   1.00
H2       0.39035    0.89555    0.35521   1.00
H2       0.39416    0.92392    0.24850   1.00
H2       0.35212    0.91500    0.27640   1.00
H2       0.39085    0.94202    0.29686   1.00
H2       0.53656    0.89265    0.31852   1.00
H2       0.52381    0.92601    0.35579   1.00
H2       0.50834    0.87741    0.35857   1.00
H2       0.49044    0.97383    0.31528   1.00
H2       0.50622    0.94799    0.27363   1.00
H2       0.45657    0.96093    0.27921   1.00
C4       0.25302    0.47916    0.24961   1.00
C4       0.25245    0.52088    0.24915   1.00
C3       0.27960    0.45636    0.22746   1.00
C3       0.27595    0.54384    0.22389   1.00
C3       0.22519    0.45877    0.27296   1.00
C3       0.22718    0.54114    0.27534   1.00
C2       0.25102    0.39488    0.25062   1.00
C2       0.24898    0.60512    0.24938   1.00
C3       0.27851    0.41538    0.22777   1.00
C3       0.27454    0.58481    0.22424   1.00
C3       0.22504    0.41742    0.27343   1.00
C3       0.22499    0.58238    0.27406   1.00
H1       0.30062    0.46885    0.21057   1.00
H1       0.29460    0.53148    0.20433   1.00
C5       0.19780    0.47980    0.29581   1.00
C5       0.20397    0.52020    0.30242   1.00
H1       0.29828    0.40045    0.21094   1.00
H1       0.29245    0.59990    0.20555   1.00
H1       0.20563    0.40320    0.29114   1.00
H1       0.20496    0.59632    0.29122   1.00
O3       0.16709    0.46039    0.31303   1.00
O3       0.18540    0.53901    0.33289   1.00
Si1      0.12522    0.45753    0.29046   1.00
Si1      0.20966    0.54721    0.37304   1.00
C6       0.10265    0.42462    0.32304   1.00
C6       0.10330    0.50402    0.29273   1.00
C6       0.12890    0.43747    0.24315   1.00
C6       0.25923    0.53307    0.37496   1.00
C6       0.20618    0.59802    0.37855   1.00
C6       0.18344    0.52523    0.41141   1.00
C6       0.12748    0.38806    0.33488   1.00
H2       0.10017    0.44209    0.34958   1.00
C6       0.06052    0.40853    0.31494   1.00
H2       0.11686    0.51642    0.31874   1.00
C6       0.11170    0.53366    0.25904   1.00
C6       0.05828    0.50664    0.29996   1.00
H2       0.14700    0.41169    0.24818   1.00
C6       0.09036    0.42228    0.22378   1.00
C6       0.14943    0.46151    0.20991   1.00
C6       0.26940    0.48929    0.36705   1.00
C6       0.29060    0.55775    0.35266   1.00
H2       0.26642    0.53788    0.40562   1.00
H2       0.22445    0.60949    0.35514   1.00
C6       0.16483    0.61622    0.37169   1.00
C6       0.22207    0.61607    0.41734   1.00
H2       0.16045    0.54625    0.41809   1.00
C6       0.16153    0.48664    0.40137   1.00
C6       0.20531    0.51756    0.45080   1.00
H2       0.15570    0.39654    0.34704   1.00
H2       0.13283    0.36910    0.30980   1.00
H2       0.11269    0.37083    0.35730   1.00
H2       0.04511    0.40392    0.34251   1.00
H2       0.04292    0.42822    0.29739   1.00
H2       0.06100    0.38036    0.30004   1.00
H2       0.10364    0.56328    0.26778   1.00
H2       0.14251    0.53468    0.25144   1.00
H2       0.09496    0.52648    0.23292   1.00
H2       0.04986    0.49138    0.32661   1.00
H2       0.04888    0.53692    0.30373   1.00
H2       0.04196    0.49450    0.27541   1.00
H2       0.06787    0.44486    0.22367   1.00
H2       0.09497    0.41292    0.19359   1.00
H2       0.07921    0.39668    0.23878   1.00
H2       0.12915    0.48098    0.19493   1.00
H2       0.17343    0.47932    0.22018   1.00
H2       0.16140    0.44172    0.18790   1.00
H2       0.27146    0.48312    0.33594   1.00
H2       0.29766    0.48191    0.37989   1.00
H2       0.24801    0.46952    0.37970   1.00
H2       0.32005    0.54875    0.36109   1.00
H2       0.28854    0.55426    0.32118   1.00
H2       0.28850    0.58878    0.35943   1.00
H2       0.16691    0.64798    0.36917   1.00
H2       0.15181    0.60565    0.34456   1.00
H2       0.14479    0.60965    0.39555   1.00
H2       0.25150    0.60584    0.42392   1.00
H2       0.22360    0.64788    0.41500   1.00
H2       0.20314    0.60915    0.44202   1.00
H2       0.18148    0.46344    0.39265   1.00
H2       0.14421    0.47619    0.42601   1.00
H2       0.14143    0.49166    0.37741   1.00
H2       0.18472    0.50956    0.47383   1.00
H2       0.22637    0.49378    0.44799   1.00
H2       0.22079    0.54343    0.46093   1.00
C4       0.24961    0.75302    -0.02084   1.00
C4       0.24915    0.75245    0.02088   1.00
C3       0.22746    0.77960    -0.04364   1.00
C3       0.22389    0.77595    0.04384   1.00
C3       0.27296    0.72519    -0.04123   1.00
C3       0.27534    0.72718    0.04114   1.00
C2       0.25062    0.75102    -0.10512   1.00
C2       0.24938    0.74898    0.10512   1.00
C3       0.22777    0.77851    -0.08462   1.00
C3       0.22424    0.77454    0.08481   1.00
C3       0.27343    0.72504    -0.08258   1.00
C3       0.27406    0.72499    0.08238   1.00
H1       0.21057    0.80062    -0.03115   1.00
H1       0.20433    0.79460    0.03148   1.00
C5       0.29581    0.69780    -0.02020   1.00
C5       0.30242    0.70397    0.02020   1.00
H1       0.21094    0.79828    -0.09955   1.00
H1       0.20555    0.79245    0.09990   1.00
H1       0.29114    0.70563    -0.09680   1.00
H1       0.29122    0.70496    0.09632   1.00
O3       0.31303    0.66709    -0.03961   1.00
O3       0.33289    0.68540    0.03901   1.00
Si1      0.29046    0.62522    -0.04247   1.00
Si1      0.37304    0.70966    0.04721   1.00
C6       0.32304    0.60265    -0.07538   1.00
C6       0.29273    0.60330    0.00402   1.00
C6       0.24315    0.62890    -0.06253   1.00
C6       0.37496    0.75923    0.03307   1.00
C6       0.37855    0.70618    0.09802   1.00
C6       0.41141    0.68344    0.02523   1.00
C6       0.33488    0.62748    -0.11194   1.00
H2       0.34958    0.60017    -0.05791   1.00
C6       0.31494    0.56052    -0.09147   1.00
H2       0.31874    0.61686    0.01642   1.00
C6       0.25904    0.61170    0.03366   1.00
C6       0.29996    0.55828    0.00664   1.00
H2       0.24818    0.64700    -0.08831   1.00
C6       0.22378    0.59036    -0.07772   1.00
C6       0.20991    0.64943    -0.03849   1.00
C6       0.36705    0.76940    -0.01071   1.00
C6       0.35266    0.79060    0.05775   1.00
H2       0.40562    0.76642    0.03788   1.00
H2       0.35514    0.72445    0.10949   1.00
C6       0.37169    0.66483    0.11622   1.00
C6       0.41734    0.72207    0.11607   1.00
H2       0.41809    0.66045    0.04625   1.00
C6       0.40137    0.66153    -0.01336   1.00
C6       0.45080    0.70531    0.01756   1.00
H2       0.34704    0.65570    -0.10346   1.00
H2       0.30980    0.63283    -0.13090   1.00
H2       0.35730    0.61269    -0.12917   1.00
H2       0.34251    0.54511    -0.09608   1.00
H2       0.29739    0.54292    -0.07178   1.00
H2       0.30004    0.56100    -0.11964   1.00
H2       0.26778    0.60364    0.06328   1.00
H2       0.25144    0.64251    0.03468   1.00
H2       0.23292    0.59496    0.02648   1.00
H2       0.32661    0.54986    -0.00862   1.00
H2       0.30373    0.54888    0.03692   1.00
H2       0.27541    0.54196    -0.00550   1.00
H2       0.22367    0.56787    -0.05514   1.00
H2       0.19359    0.59497    -0.08708   1.00
H2       0.23878    0.57921    -0.10332   1.00
H2       0.19493    0.62915    -0.01902   1.00
H2       0.22018    0.67343    -0.02068   1.00
H2       0.18790    0.66140    -0.05828   1.00
H2       0.33594    0.77146    -0.01688   1.00
H2       0.37989    0.79766    -0.01809   1.00
H2       0.37970    0.74801    -0.03048   1.00
H2       0.36109    0.82005    0.04875   1.00
H2       0.32118    0.78854    0.05426   1.00
H2       0.35943    0.78850    0.08878   1.00
H2       0.36917    0.66691    0.14798   1.00
H2       0.34456    0.65181    0.10565   1.00
H2       0.39555    0.64479    0.10965   1.00
H2       0.42392    0.75150    0.10584   1.00
H2       0.41500    0.72360    0.14788   1.00
H2       0.44202    0.70314    0.10915   1.00
H2       0.39265    0.68148    -0.03656   1.00
H2       0.42601    0.64421    -0.02381   1.00
H2       0.37741    0.64143    -0.00834   1.00
H2       0.47383    0.68472    0.00956   1.00
H2       0.44799    0.72637    -0.00622   1.00
H2       0.46093    0.72079    0.04343   1.00
C4       0.74961    0.24698    0.52084   1.00
C4       0.74915    0.24755    0.47912   1.00
C3       0.72746    0.22040    0.54364   1.00
C3       0.72389    0.22405    0.45616   1.00
C3       0.77296    0.27481    0.54123   1.00
C3       0.77534    0.27282    0.45886   1.00
C2       0.75062    0.24898    0.60512   1.00
C2       0.74938    0.25102    0.39488   1.00
C3       0.72777    0.22149    0.58462   1.00
C3       0.72424    0.22546    0.41519   1.00
C3       0.77343    0.27496    0.58258   1.00
C3       0.77406    0.27501    0.41762   1.00
H1       0.71057    0.19938    0.53115   1.00
H1       0.70433    0.20540    0.46852   1.00
C5       0.79581    0.30220    0.52020   1.00
C5       0.80242    0.29603    0.47980   1.00
H1       0.71094    0.20172    0.59955   1.00
H1       0.70555    0.20755    0.40010   1.00
H1       0.79114    0.29437    0.59680   1.00
H1       0.79122    0.29504    0.40368   1.00
O3       0.81303    0.33291    0.53961   1.00
O3       0.83289    0.31460    0.46099   1.00
Si1      0.79046    0.37478    0.54247   1.00
Si1      0.87304    0.29034    0.45279   1.00
C6       0.82304    0.39735    0.57538   1.00
C6       0.79273    0.39670    0.49598   1.00
C6       0.74315    0.37110    0.56253   1.00
C6       0.87496    0.24077    0.46693   1.00
C6       0.87855    0.29382    0.40198   1.00
C6       0.91141    0.31656    0.47477   1.00
C6       0.83488    0.37252    0.61194   1.00
H2       0.84958    0.39983    0.55791   1.00
C6       0.81494    0.43948    0.59147   1.00
H2       0.81874    0.38314    0.48358   1.00
C6       0.75904    0.38830    0.46634   1.00
C6       0.79996    0.44172    0.49336   1.00
H2       0.74818    0.35300    0.58831   1.00
C6       0.72378    0.40964    0.57772   1.00
C6       0.70991    0.35057    0.53849   1.00
C6       0.86705    0.23060    0.51071   1.00
C6       0.85266    0.20940    0.44225   1.00
H2       0.90562    0.23358    0.46212   1.00
H2       0.85514    0.27555    0.39051   1.00
C6       0.87169    0.33517    0.38378   1.00
C6       0.91734    0.27793    0.38393   1.00
H2       0.91809    0.33955    0.45375   1.00
C6       0.90137    0.33847    0.51336   1.00
C6       0.95080    0.29469    0.48244   1.00
H2       0.84704    0.34430    0.60346   1.00
H2       0.80980    0.36717    0.63090   1.00
H2       0.85730    0.38731    0.62917   1.00
H2       0.84251    0.45489    0.59608   1.00
H2       0.79739    0.45708    0.57178   1.00
H2       0.80004    0.43900    0.61964   1.00
H2       0.76778    0.39636    0.43672   1.00
H2       0.75144    0.35749    0.46532   1.00
H2       0.73292    0.40504    0.47352   1.00
H2       0.82661    0.45014    0.50862   1.00
H2       0.80373    0.45112    0.46308   1.00
H2       0.77541    0.45804    0.50550   1.00
H2       0.72367    0.43213    0.55514   1.00
H2       0.69359    0.40503    0.58708   1.00
H2       0.73878    0.42079    0.60332   1.00
H2       0.69493    0.37085    0.51902   1.00
H2       0.72018    0.32657    0.52068   1.00
H2       0.68790    0.33860    0.55828   1.00
H2       0.83594    0.22854    0.51688   1.00
H2       0.87989    0.20234    0.51809   1.00
H2       0.87970    0.25199    0.53048   1.00
H2       0.86109    0.17995    0.45125   1.00
H2       0.82118    0.21146    0.44574   1.00
H2       0.85943    0.21150    0.41122   1.00
H2       0.86917    0.33309    0.35202   1.00
H2       0.84456    0.34819    0.39435   1.00
H2       0.89555    0.35521    0.39035   1.00
H2       0.92392    0.24850    0.39416   1.00
H2       0.91500    0.27640    0.35212   1.00
H2       0.94202    0.29686    0.39085   1.00
H2       0.89265    0.31852    0.53656   1.00
H2       0.92601    0.35579    0.52381   1.00
H2       0.87741    0.35857    0.50834   1.00
H2       0.97383    0.31528    0.49044   1.00
H2       0.94799    0.27363    0.50622   1.00
H2       0.96093    0.27921    0.45657   1.00
C4       0.74698    0.52084    0.24961   1.00
C4       0.74755    0.47912    0.24915   1.00
C3       0.72040    0.54364    0.22746   1.00
C3       0.72405    0.45616    0.22389   1.00
C3       0.77481    0.54123    0.27296   1.00
C3       0.77282    0.45886    0.27534   1.00
C2       0.74898    0.60512    0.25062   1.00
C2       0.75102    0.39488    0.24938   1.00
C3       0.72149    0.58462    0.22777   1.00
C3       0.72546    0.41519    0.22424   1.00
C3       0.77496    0.58258    0.27343   1.00
C3       0.77501    0.41762    0.27406   1.00
H1       0.69938    0.53115    0.21057   1.00
H1       0.70540    0.46852    0.20433   1.00
C5       0.80220    0.52020    0.29581   1.00
C5       0.79603    0.47980    0.30242   1.00
H1       0.70172    0.59955    0.21094   1.00
H1       0.70755    0.40010    0.20555   1.00
H1       0.79437    0.59680    0.29114   1.00
H1       0.79504    0.40368    0.29122   1.00
O3       0.83291    0.53961    0.31303   1.00
O3       0.81460    0.46099    0.33289   1.00
Si1      0.87478    0.54247    0.29046   1.00
Si1      0.79034    0.45279    0.37304   1.00
C6       0.89735    0.57538    0.32304   1.00
C6       0.89670    0.49598    0.29273   1.00
C6       0.87110    0.56253    0.24315   1.00
C6       0.74077    0.46693    0.37496   1.00
C6       0.79382    0.40198    0.37855   1.00
C6       0.81656    0.47477    0.41141   1.00
C6       0.87252    0.61194    0.33488   1.00
H2       0.89983    0.55791    0.34958   1.00
C6       0.93948    0.59147    0.31494   1.00
H2       0.88314    0.48358    0.31874   1.00
C6       0.88830    0.46634    0.25904   1.00
C6       0.94172    0.49336    0.29996   1.00
H2       0.85300    0.58831    0.24818   1.00
C6       0.90964    0.57772    0.22378   1.00
C6       0.85057    0.53849    0.20991   1.00
C6       0.73060    0.51071    0.36705   1.00
C6       0.70940    0.44225    0.35266   1.00
H2       0.73358    0.46212    0.40562   1.00
H2       0.77555    0.39051    0.35514   1.00
C6       0.83517    0.38378    0.37169   1.00
C6       0.77793    0.38393    0.41734   1.00
H2       0.83955    0.45375    0.41809   1.00
C6       0.83847    0.51336    0.40137   1.00
C6       0.79469    0.48244    0.45080   1.00
H2       0.84430    0.60346    0.34704   1.00
H2       0.86717    0.63090    0.30980   1.00
H2       0.88731    0.62917    0.35730   1.00
H2       0.95489    0.59608    0.34251   1.00
H2       0.95708    0.57178    0.29739   1.00
H2       0.93900    0.61964    0.30004   1.00
H2       0.89636    0.43672    0.26778   1.00
H2       0.85749    0.46532    0.25144   1.00
H2       0.90504    0.47352    0.23292   1.00
H2       0.95014    0.50862    0.32661   1.00
H2       0.95112    0.46308    0.30373   1.00
H2       0.95804    0.50550    0.27541   1.00
H2       0.93213    0.55514    0.22367   1.00
H2       0.90503    0.58708    0.19359   1.00
H2       0.92079    0.60332    0.23878   1.00
H2       0.87085    0.51902    0.19493   1.00
H2       0.82657    0.52068    0.22018   1.00
H2       0.83860    0.55828    0.18790   1.00
H2       0.72854    0.51688    0.33594   1.00
H2       0.70234    0.51809    0.37989   1.00
H2       0.75199    0.53048    0.37970   1.00
H2       0.67995    0.45125    0.36109   1.00
H2       0.71146    0.44574    0.32118   1.00
H2       0.71150    0.41122    0.35943   1.00
H2       0.83309    0.35202    0.36917   1.00
H2       0.84819    0.39435    0.34456   1.00
H2       0.85521    0.39035    0.39555   1.00
H2       0.74850    0.39416    0.42392   1.00
H2       0.77640    0.35212    0.41500   1.00
H2       0.79686    0.39085    0.44202   1.00
H2       0.81852    0.53656    0.39265   1.00
H2       0.85579    0.52381    0.42601   1.00
H2       0.85857    0.50834    0.37741   1.00
H2       0.81528    0.49044    0.47383   1.00
H2       0.77363    0.50622    0.44799   1.00
H2       0.77921    0.45657    0.46093   1.00
C4       0.47916    0.24961    0.25302   1.00
C4       0.52088    0.24915    0.25245   1.00
C3       0.45636    0.22746    0.27960   1.00
C3       0.54384    0.22389    0.27595   1.00
C3       0.45877    0.27296    0.22519   1.00
C3       0.54114    0.27534    0.22718   1.00
C2       0.39488    0.25062    0.25102   1.00
C2       0.60512    0.24938    0.24898   1.00
C3       0.41538    0.22777    0.27851   1.00
C3       0.58481    0.22424    0.27454   1.00
C3       0.41742    0.27343    0.22504   1.00
C3       0.58238    0.27406    0.22499   1.00
H1       0.46885    0.21057    0.30062   1.00
H1       0.53148    0.20433    0.29460   1.00
C5       0.47980    0.29581    0.19780   1.00
C5       0.52020    0.30242    0.20397   1.00
H1       0.40045    0.21094    0.29828   1.00
H1       0.59990    0.20555    0.29245   1.00
H1       0.40320    0.29114    0.20563   1.00
H1       0.59632    0.29122    0.20496   1.00
O3       0.46039    0.31303    0.16709   1.00
O3       0.53901    0.33289    0.18540   1.00
Si1      0.45753    0.29046    0.12522   1.00
Si1      0.54721    0.37304    0.20966   1.00
C6       0.42462    0.32304    0.10265   1.00
C6       0.50402    0.29273    0.10330   1.00
C6       0.43747    0.24315    0.12890   1.00
C6       0.53307    0.37496    0.25923   1.00
C6       0.59802    0.37855    0.20618   1.00
C6       0.52523    0.41141    0.18344   1.00
C6       0.38806    0.33488    0.12748   1.00
H2       0.44209    0.34958    0.10017   1.00
C6       0.40853    0.31494    0.06052   1.00
H2       0.51642    0.31874    0.11686   1.00
C6       0.53366    0.25904    0.11170   1.00
C6       0.50664    0.29996    0.05828   1.00
H2       0.41169    0.24818    0.14700   1.00
C6       0.42228    0.22378    0.09036   1.00
C6       0.46151    0.20991    0.14943   1.00
C6       0.48929    0.36705    0.26940   1.00
C6       0.55775    0.35266    0.29060   1.00
H2       0.53788    0.40562    0.26642   1.00
H2       0.60949    0.35514    0.22445   1.00
C6       0.61622    0.37169    0.16483   1.00
C6       0.61607    0.41734    0.22207   1.00
H2       0.54625    0.41809    0.16045   1.00
C6       0.48664    0.40137    0.16153   1.00
C6       0.51756    0.45080    0.20531   1.00
H2       0.39654    0.34704    0.15570   1.00
H2       0.36910    0.30980    0.13283   1.00
H2       0.37083    0.35730    0.11269   1.00
H2       0.40392    0.34251    0.04511   1.00
H2       0.42822    0.29739    0.04292   1.00
H2       0.38036    0.30004    0.06100   1.00
H2       0.56328    0.26778    0.10364   1.00
H2       0.53468    0.25144    0.14251   1.00
H2       0.52648    0.23292    0.09496   1.00
H2       0.49138    0.32661    0.04986   1.00
H2       0.53692    0.30373    0.04888   1.00
H2       0.49450    0.27541    0.04196   1.00
H2       0.44486    0.22367    0.06787   1.00
H2       0.41292    0.19359    0.09497   1.00
H2       0.39668    0.23878    0.07921   1.00
H2       0.48098    0.19493    0.12915   1.00
H2       0.47932    0.22018    0.17343   1.00
H2       0.44172    0.18790    0.16140   1.00
H2       0.48312    0.33594    0.27146   1.00
H2       0.48191    0.37989    0.29766   1.00
H2       0.46952    0.37970    0.24801   1.00
H2       0.54875    0.36109    0.32005   1.00
H2       0.55426    0.32118    0.28854   1.00
H2       0.58878    0.35943    0.28850   1.00
H2       0.64798    0.36917    0.16691   1.00
H2       0.60565    0.34456    0.15181   1.00
H2       0.60965    0.39555    0.14479   1.00
H2       0.60584    0.42392    0.25150   1.00
H2       0.64788    0.41500    0.22360   1.00
H2       0.60915    0.44202    0.20314   1.00
H2       0.46344    0.39265    0.18148   1.00
H2       0.47619    0.42601    0.14421   1.00
H2       0.49166    0.37741    0.14143   1.00
H2       0.50956    0.47383    0.18472   1.00
H2       0.49378    0.44799    0.22637   1.00
H2       0.54343    0.46093    0.22079   1.00
C4       1.02084    0.24961    0.24698   1.00
C4       0.97912    0.24915    0.24755   1.00
C3       1.04364    0.22746    0.22040   1.00
C3       0.95616    0.22389    0.22405   1.00
C3       1.04123    0.27296    0.27481   1.00
C3       0.95886    0.27534    0.27282   1.00
C2       1.10512    0.25062    0.24898   1.00
C2       0.89488    0.24938    0.25102   1.00
C3       1.08462    0.22777    0.22149   1.00
C3       0.91519    0.22424    0.22546   1.00
C3       1.08258    0.27343    0.27496   1.00
C3       0.91762    0.27406    0.27501   1.00
H1       1.03115    0.21057    0.19938   1.00
H1       0.96852    0.20433    0.20540   1.00
C5       1.02020    0.29581    0.30220   1.00
C5       0.97980    0.30242    0.29603   1.00
H1       1.09955    0.21094    0.20172   1.00
H1       0.90010    0.20555    0.20755   1.00
H1       1.09680    0.29114    0.29437   1.00
H1       0.90368    0.29122    0.29504   1.00
O3       1.03961    0.31303    0.33291   1.00
O3       0.96099    0.33289    0.31460   1.00
Si1      1.04247    0.29046    0.37478   1.00
Si1      0.95279    0.37304    0.29034   1.00
C6       1.07538    0.32304    0.39735   1.00
C6       0.99598    0.29273    0.39670   1.00
C6       1.06253    0.24315    0.37110   1.00
C6       0.96693    0.37496    0.24077   1.00
C6       0.90198    0.37855    0.29382   1.00
C6       0.97477    0.41141    0.31656   1.00
C6       1.11194    0.33488    0.37252   1.00
H2       1.05791    0.34958    0.39983   1.00
C6       1.09147    0.31494    0.43948   1.00
H2       0.98358    0.31874    0.38314   1.00
C6       0.96634    0.25904    0.38830   1.00
C6       0.99336    0.29996    0.44172   1.00
H2       1.08831    0.24818    0.35300   1.00
C6       1.07772    0.22378    0.40964   1.00
C6       1.03849    0.20991    0.35057   1.00
C6       1.01071    0.36705    0.23060   1.00
C6       0.94225    0.35266    0.20940   1.00
H2       0.96212    0.40562    0.23358   1.00
H2       0.89051    0.35514    0.27555   1.00
C6       0.88378    0.37169    0.33517   1.00
C6       0.88393    0.41734    0.27793   1.00
H2       0.95375    0.41809    0.33955   1.00
C6       1.01336    0.40137    0.33847   1.00
C6       0.98244    0.45080    0.29469   1.00
H2       1.10346    0.34704    0.34430   1.00
H2       1.13090    0.30980    0.36717   1.00
H2       1.12917    0.35730    0.38731   1.00
H2       1.09608    0.34251    0.45489   1.00
H2       1.07178    0.29739    0.45708   1.00
H2       1.11964    0.30004    0.43900   1.00
H2       0.93672    0.26778    0.39636   1.00
H2       0.96532    0.25144    0.35749   1.00
H2       0.97352    0.23292    0.40504   1.00
H2       1.00862    0.32661    0.45014   1.00
H2       0.96308    0.30373    0.45112   1.00
H2       1.00550    0.27541    0.45804   1.00
H2       1.05514    0.22367    0.43213   1.00
H2       1.08708    0.19359    0.40503   1.00
H2       1.10332    0.23878    0.42079   1.00
H2       1.01902    0.19493    0.37085   1.00
H2       1.02068    0.22018    0.32657   1.00
H2       1.05828    0.18790    0.33860   1.00
H2       1.01688    0.33594    0.22854   1.00
H2       1.01809    0.37989    0.20234   1.00
H2       1.03048    0.37970    0.25199   1.00
H2       0.95125    0.36109    0.17995   1.00
H2       0.94574    0.32118    0.21146   1.00
H2       0.91122    0.35943    0.21150   1.00
H2       0.85202    0.36917    0.33309   1.00
H2       0.89435    0.34456    0.34819   1.00
H2       0.89035    0.39555    0.35521   1.00
H2       0.89416    0.42392    0.24850   1.00
H2       0.85212    0.41500    0.27640   1.00
H2       0.89085    0.44202    0.29686   1.00
H2       1.03656    0.39265    0.31852   1.00
H2       1.02381    0.42601    0.35579   1.00
H2       1.00834    0.37741    0.35857   1.00
H2       0.99044    0.47383    0.31528   1.00
H2       1.00622    0.44799    0.27363   1.00
H2       0.95657    0.46093    0.27921   1.00
C4       0.75302    -0.02084   0.24961   1.00
C4       0.75245    0.02088    0.24915   1.00
C3       0.77960    -0.04364   0.22746   1.00
C3       0.77595    0.04384    0.22389   1.00
C3       0.72519    -0.04123   0.27296   1.00
C3       0.72718    0.04114    0.27534   1.00
C2       0.75102    -0.10512   0.25062   1.00
C2       0.74898    0.10512    0.24938   1.00
C3       0.77851    -0.08462   0.22777   1.00
C3       0.77454    0.08481    0.22424   1.00
C3       0.72504    -0.08258   0.27343   1.00
C3       0.72499    0.08238    0.27406   1.00
H1       0.80062    -0.03115   0.21057   1.00
H1       0.79460    0.03148    0.20433   1.00
C5       0.69780    -0.02020   0.29581   1.00
C5       0.70397    0.02020    0.30242   1.00
H1       0.79828    -0.09955   0.21094   1.00
H1       0.79245    0.09990    0.20555   1.00
H1       0.70563    -0.09680   0.29114   1.00
H1       0.70496    0.09632    0.29122   1.00
O3       0.66709    -0.03961   0.31303   1.00
O3       0.68540    0.03901    0.33289   1.00
Si1      0.62522    -0.04247   0.29046   1.00
Si1      0.70966    0.04721    0.37304   1.00
C6       0.60265    -0.07538   0.32304   1.00
C6       0.60330    0.00402    0.29273   1.00
C6       0.62890    -0.06253   0.24315   1.00
C6       0.75923    0.03307    0.37496   1.00
C6       0.70618    0.09802    0.37855   1.00
C6       0.68344    0.02523    0.41141   1.00
C6       0.62748    -0.11194   0.33488   1.00
H2       0.60017    -0.05791   0.34958   1.00
C6       0.56052    -0.09147   0.31494   1.00
H2       0.61686    0.01642    0.31874   1.00
C6       0.61170    0.03366    0.25904   1.00
C6       0.55828    0.00664    0.29996   1.00
H2       0.64700    -0.08831   0.24818   1.00
C6       0.59036    -0.07772   0.22378   1.00
C6       0.64943    -0.03849   0.20991   1.00
C6       0.76940    -0.01071   0.36705   1.00
C6       0.79060    0.05775    0.35266   1.00
H2       0.76642    0.03788    0.40562   1.00
H2       0.72445    0.10949    0.35514   1.00
C6       0.66483    0.11622    0.37169   1.00
C6       0.72207    0.11607    0.41734   1.00
H2       0.66045    0.04625    0.41809   1.00
C6       0.66153    -0.01336   0.40137   1.00
C6       0.70531    0.01756    0.45080   1.00
H2       0.65570    -0.10346   0.34704   1.00
H2       0.63283    -0.13090   0.30980   1.00
H2       0.61269    -0.12917   0.35730   1.00
H2       0.54511    -0.09608   0.34251   1.00
H2       0.54292    -0.07178   0.29739   1.00
H2       0.56100    -0.11964   0.30004   1.00
H2       0.60364    0.06328    0.26778   1.00
H2       0.64251    0.03468    0.25144   1.00
H2       0.59496    0.02648    0.23292   1.00
H2       0.54986    -0.00862   0.32661   1.00
H2       0.54888    0.03692    0.30373   1.00
H2       0.54196    -0.00550   0.27541   1.00
H2       0.56787    -0.05514   0.22367   1.00
H2       0.59497    -0.08708   0.19359   1.00
H2       0.57921    -0.10332   0.23878   1.00
H2       0.62915    -0.01902   0.19493   1.00
H2       0.67343    -0.02068   0.22018   1.00
H2       0.66140    -0.05828   0.18790   1.00
H2       0.77146    -0.01688   0.33594   1.00
H2       0.79766    -0.01809   0.37989   1.00
H2       0.74801    -0.03048   0.37970   1.00
H2       0.82005    0.04875    0.36109   1.00
H2       0.78854    0.05426    0.32118   1.00
H2       0.78850    0.08878    0.35943   1.00
H2       0.66691    0.14798    0.36917   1.00
H2       0.65181    0.10565    0.34456   1.00
H2       0.64479    0.10965    0.39555   1.00
H2       0.75150    0.10584    0.42392   1.00
H2       0.72360    0.14788    0.41500   1.00
H2       0.70314    0.10915    0.44202   1.00
H2       0.68148    -0.03656   0.39265   1.00
H2       0.64421    -0.02381   0.42601   1.00
H2       0.64143    -0.00834   0.37741   1.00
H2       0.68472    0.00956    0.47383   1.00
H2       0.72637    -0.00622   0.44799   1.00
H2       0.72079    0.04343    0.46093   1.00
C4       0.74961    0.25302    -0.02084   1.00
C4       0.74915    0.25245    0.02088   1.00
C3       0.72746    0.27960    -0.04364   1.00
C3       0.72389    0.27595    0.04384   1.00
C3       0.77296    0.22519    -0.04123   1.00
C3       0.77534    0.22718    0.04114   1.00
C2       0.75062    0.25102    -0.10512   1.00
C2       0.74938    0.24898    0.10512   1.00
C3       0.72777    0.27851    -0.08462   1.00
C3       0.72424    0.27454    0.08481   1.00
C3       0.77343    0.22504    -0.08258   1.00
C3       0.77406    0.22499    0.08238   1.00
H1       0.71057    0.30062    -0.03115   1.00
H1       0.70433    0.29460    0.03148   1.00
C5       0.79581    0.19780    -0.02020   1.00
C5       0.80242    0.20397    0.02020   1.00
H1       0.71094    0.29828    -0.09955   1.00
H1       0.70555    0.29245    0.09990   1.00
H1       0.79114    0.20563    -0.09680   1.00
H1       0.79122    0.20496    0.09632   1.00
O3       0.81303    0.16709    -0.03961   1.00
O3       0.83289    0.18540    0.03901   1.00
Si1      0.79046    0.12522    -0.04247   1.00
Si1      0.87304    0.20966    0.04721   1.00
C6       0.82304    0.10265    -0.07538   1.00
C6       0.79273    0.10330    0.00402   1.00
C6       0.74315    0.12890    -0.06253   1.00
C6       0.87496    0.25923    0.03307   1.00
C6       0.87855    0.20618    0.09802   1.00
C6       0.91141    0.18344    0.02523   1.00
C6       0.83488    0.12748    -0.11194   1.00
H2       0.84958    0.10017    -0.05791   1.00
C6       0.81494    0.06052    -0.09147   1.00
H2       0.81874    0.11686    0.01642   1.00
C6       0.75904    0.11170    0.03366   1.00
C6       0.79996    0.05828    0.00664   1.00
H2       0.74818    0.14700    -0.08831   1.00
C6       0.72378    0.09036    -0.07772   1.00
C6       0.70991    0.14943    -0.03849   1.00
C6       0.86705    0.26940    -0.01071   1.00
C6       0.85266    0.29060    0.05775   1.00
H2       0.90562    0.26642    0.03788   1.00
H2       0.85514    0.22445    0.10949   1.00
C6       0.87169    0.16483    0.11622   1.00
C6       0.91734    0.22207    0.11607   1.00
H2       0.91809    0.16045    0.04625   1.00
C6       0.90137    0.16153    -0.01336   1.00
C6       0.95080    0.20531    0.01756   1.00
H2       0.84704    0.15570    -0.10346   1.00
H2       0.80980    0.13283    -0.13090   1.00
H2       0.85730    0.11269    -0.12917   1.00
H2       0.84251    0.04511    -0.09608   1.00
H2       0.79739    0.04292    -0.07178   1.00
H2       0.80004    0.06100    -0.11964   1.00
H2       0.76778    0.10364    0.06328   1.00
H2       0.75144    0.14251    0.03468   1.00
H2       0.73292    0.09496    0.02648   1.00
H2       0.82661    0.04986    -0.00862   1.00
H2       0.80373    0.04888    0.03692   1.00
H2       0.77541    0.04196    -0.00550   1.00
H2       0.72367    0.06787    -0.05514   1.00
H2       0.69359    0.09497    -0.08708   1.00
H2       0.73878    0.07921    -0.10332   1.00
H2       0.69493    0.12915    -0.01902   1.00
H2       0.72018    0.17343    -0.02068   1.00
H2       0.68790    0.16140    -0.05828   1.00
H2       0.83594    0.27146    -0.01688   1.00
H2       0.87989    0.29766    -0.01809   1.00
H2       0.87970    0.24801    -0.03048   1.00
H2       0.86109    0.32005    0.04875   1.00
H2       0.82118    0.28854    0.05426   1.00
H2       0.85943    0.28850    0.08878   1.00
H2       0.86917    0.16691    0.14798   1.00
H2       0.84456    0.15181    0.10565   1.00
H2       0.89555    0.14479    0.10965   1.00
H2       0.92392    0.25150    0.10584   1.00
H2       0.91500    0.22360    0.14788   1.00
H2       0.94202    0.20314    0.10915   1.00
H2       0.89265    0.18148    -0.03656   1.00
H2       0.92601    0.14421    -0.02381   1.00
H2       0.87741    0.14143    -0.00834   1.00
H2       0.97383    0.18472    0.00956   1.00
H2       0.94799    0.22637    -0.00622   1.00
H2       0.96093    0.22079    0.04343   1.00
C4       0.91461    0.91198    1.18584   1.00
C4       0.91415    0.91255    1.14412   1.00
C3       0.89246    0.88540    1.20864   1.00
C3       0.88889    0.88905    1.12116   1.00
C3       0.93796    0.93981    1.20623   1.00
C3       0.94034    0.93782    1.12386   1.00
C2       0.91562    0.91398    1.27012   1.00
C2       0.91438    0.91602    1.05988   1.00
C3       0.89277    0.88649    1.24962   1.00
C3       0.88924    0.89046    1.08019   1.00
C3       0.93843    0.93996    1.24758   1.00
C3       0.93906    0.94001    1.08262   1.00
H1       0.87557    0.86438    1.19615   1.00
H1       0.86933    0.87040    1.13352   1.00
C5       0.96081    0.96720    1.18520   1.00
C5       0.96742    0.96103    1.14480   1.00
H1       0.87594    0.86672    1.26455   1.00
H1       0.87055    0.87255    1.06510   1.00
H1       0.95614    0.95937    1.26180   1.00
H1       0.95622    0.96004    1.06868   1.00
O3       0.97803    0.99791    1.20461   1.00
O3       0.99789    0.97960    1.12599   1.00
Si1      0.95546    1.03978    1.20747   1.00
Si1      1.03804    0.95534    1.11779   1.00
C6       0.98804    1.06235    1.24038   1.00
C6       0.95773    1.06170    1.16098   1.00
C6       0.90815    1.03610    1.22753   1.00
C6       1.03996    0.90577    1.13193   1.00
C6       1.04355    0.95882    1.06698   1.00
C6       1.07641    0.98156    1.13977   1.00
C6       0.99988    1.03752    1.27694   1.00
H2       1.01458    1.06483    1.22291   1.00
C6       0.97994    1.10448    1.25647   1.00
H2       0.98374    1.04814    1.14858   1.00
C6       0.92404    1.05330    1.13134   1.00
C6       0.96496    1.10672    1.15836   1.00
H2       0.91318    1.01800    1.25331   1.00
C6       0.88878    1.07464    1.24272   1.00
C6       0.87491    1.01557    1.20349   1.00
C6       1.03205    0.89560    1.17571   1.00
C6       1.01766    0.87440    1.10725   1.00
H2       1.07062    0.89858    1.12712   1.00
H2       1.02014    0.94055    1.05551   1.00
C6       1.03669    1.00017    1.04878   1.00
C6       1.08234    0.94293    1.04893   1.00
H2       1.08309    1.00455    1.11875   1.00
C6       1.06637    1.00347    1.17836   1.00
C6       1.11580    0.95969    1.14744   1.00
H2       1.01204    1.00930    1.26846   1.00
H2       0.97480    1.03217    1.29590   1.00
H2       1.02230    1.05231    1.29417   1.00
H2       1.00751    1.11989    1.26108   1.00
H2       0.96239    1.12208    1.23678   1.00
H2       0.96504    1.10400    1.28464   1.00
H2       0.93278    1.06136    1.10172   1.00
H2       0.91644    1.02249    1.13032   1.00
H2       0.89792    1.07004    1.13852   1.00
H2       0.99161    1.11514    1.17362   1.00
H2       0.96873    1.11612    1.12808   1.00
H2       0.94041    1.12304    1.17050   1.00
H2       0.88867    1.09713    1.22014   1.00
H2       0.85859    1.07003    1.25208   1.00
H2       0.90378    1.08579    1.26832   1.00
H2       0.85993    1.03585    1.18402   1.00
H2       0.88518    0.99157    1.18568   1.00
H2       0.85290    1.00360    1.22328   1.00
H2       1.00094    0.89354    1.18188   1.00
H2       1.04489    0.86734    1.18309   1.00
H2       1.04470    0.91699    1.19548   1.00
H2       1.02609    0.84495    1.11625   1.00
H2       0.98618    0.87646    1.11074   1.00
H2       1.02443    0.87650    1.07622   1.00
H2       1.03417    0.99809    1.01702   1.00
H2       1.00956    1.01319    1.05935   1.00
H2       1.06055    1.02021    1.05535   1.00
H2       1.08892    0.91350    1.05916   1.00
H2       1.08000    0.94140    1.01712   1.00
H2       1.10702    0.96186    1.05585   1.00
H2       1.05765    0.98352    1.20156   1.00
H2       1.09101    1.02079    1.18881   1.00
H2       1.04241    1.02357    1.17334   1.00
H2       1.13883    0.98028    1.15544   1.00
H2       1.11299    0.93863    1.17122   1.00
H2       1.12593    0.94421    1.12157   1.00
C4       0.91198    1.18584    0.91461   1.00
C4       0.91255    1.14412    0.91415   1.00
C3       0.88540    1.20864    0.89246   1.00
C3       0.88905    1.12116    0.88889   1.00
C3       0.93981    1.20623    0.93796   1.00
C3       0.93782    1.12386    0.94034   1.00
C2       0.91398    1.27012    0.91562   1.00
C2       0.91602    1.05988    0.91438   1.00
C3       0.88649    1.24962    0.89277   1.00
C3       0.89046    1.08019    0.88924   1.00
C3       0.93996    1.24758    0.93843   1.00
C3       0.94001    1.08262    0.93906   1.00
H1       0.86438    1.19615    0.87557   1.00
H1       0.87040    1.13352    0.86933   1.00
C5       0.96720    1.18520    0.96081   1.00
C5       0.96103    1.14480    0.96742   1.00
H1       0.86672    1.26455    0.87594   1.00
H1       0.87255    1.06510    0.87055   1.00
H1       0.95937    1.26180    0.95614   1.00
H1       0.96004    1.06868    0.95622   1.00
O3       0.99791    1.20461    0.97803   1.00
O3       0.97960    1.12599    0.99789   1.00
Si1      1.03978    1.20747    0.95546   1.00
Si1      0.95534    1.11779    1.03804   1.00
C6       1.06235    1.24038    0.98804   1.00
C6       1.06170    1.16098    0.95773   1.00
C6       1.03610    1.22753    0.90815   1.00
C6       0.90577    1.13193    1.03996   1.00
C6       0.95882    1.06698    1.04355   1.00
C6       0.98156    1.13977    1.07641   1.00
C6       1.03752    1.27694    0.99988   1.00
H2       1.06483    1.22291    1.01458   1.00
C6       1.10448    1.25647    0.97994   1.00
H2       1.04814    1.14858    0.98374   1.00
C6       1.05330    1.13134    0.92404   1.00
C6       1.10672    1.15836    0.96496   1.00
H2       1.01800    1.25331    0.91318   1.00
C6       1.07464    1.24272    0.88878   1.00
C6       1.01557    1.20349    0.87491   1.00
C6       0.89560    1.17571    1.03205   1.00
C6       0.87440    1.10725    1.01766   1.00
H2       0.89858    1.12712    1.07062   1.00
H2       0.94055    1.05551    1.02014   1.00
C6       1.00017    1.04878    1.03669   1.00
C6       0.94293    1.04893    1.08234   1.00
H2       1.00455    1.11875    1.08309   1.00
C6       1.00347    1.17836    1.06637   1.00
C6       0.95969    1.14744    1.11580   1.00
H2       1.00930    1.26846    1.01204   1.00
H2       1.03217    1.29590    0.97480   1.00
H2       1.05231    1.29417    1.02230   1.00
H2       1.11989    1.26108    1.00751   1.00
H2       1.12208    1.23678    0.96239   1.00
H2       1.10400    1.28464    0.96504   1.00
H2       1.06136    1.10172    0.93278   1.00
H2       1.02249    1.13032    0.91644   1.00
H2       1.07004    1.13852    0.89792   1.00
H2       1.11514    1.17362    0.99161   1.00
H2       1.11612    1.12808    0.96873   1.00
H2       1.12304    1.17050    0.94041   1.00
H2       1.09713    1.22014    0.88867   1.00
H2       1.07003    1.25208    0.85859   1.00
H2       1.08579    1.26832    0.90378   1.00
H2       1.03585    1.18402    0.85993   1.00
H2       0.99157    1.18568    0.88518   1.00
H2       1.00360    1.22328    0.85290   1.00
H2       0.89354    1.18188    1.00094   1.00
H2       0.86734    1.18309    1.04489   1.00
H2       0.91699    1.19548    1.04470   1.00
H2       0.84495    1.11625    1.02609   1.00
H2       0.87646    1.11074    0.98618   1.00
H2       0.87650    1.07622    1.02443   1.00
H2       0.99809    1.01702    1.03417   1.00
H2       1.01319    1.05935    1.00956   1.00
H2       1.02021    1.05535    1.06055   1.00
H2       0.91350    1.05916    1.08892   1.00
H2       0.94140    1.01712    1.08000   1.00
H2       0.96186    1.05585    1.10702   1.00
H2       0.98352    1.20156    1.05765   1.00
H2       1.02079    1.18881    1.09101   1.00
H2       1.02357    1.17334    1.04241   1.00
H2       0.98028    1.15544    1.13883   1.00
H2       0.93863    1.17122    1.11299   1.00
H2       0.94421    1.12157    1.12593   1.00
C4       0.64416    0.91461    0.91802   1.00
C4       0.68588    0.91415    0.91745   1.00
C3       0.62136    0.89246    0.94460   1.00
C3       0.70884    0.88889    0.94095   1.00
C3       0.62377    0.93796    0.89019   1.00
C3       0.70614    0.94034    0.89218   1.00
C2       0.55988    0.91562    0.91602   1.00
C2       0.77012    0.91438    0.91398   1.00
C3       0.58038    0.89277    0.94351   1.00
C3       0.74981    0.88924    0.93954   1.00
C3       0.58242    0.93843    0.89004   1.00
C3       0.74738    0.93906    0.88999   1.00
H1       0.63385    0.87557    0.96562   1.00
H1       0.69648    0.86933    0.95960   1.00
C5       0.64480    0.96081    0.86280   1.00
C5       0.68520    0.96742    0.86897   1.00
H1       0.56545    0.87594    0.96328   1.00
H1       0.76490    0.87055    0.95745   1.00
H1       0.56820    0.95614    0.87063   1.00
H1       0.76132    0.95622    0.86996   1.00
O3       0.62539    0.97803    0.83209   1.00
O3       0.70401    0.99789    0.85040   1.00
Si1      0.62253    0.95546    0.79022   1.00
Si1      0.71221    1.03804    0.87466   1.00
C6       0.58962    0.98804    0.76765   1.00
C6       0.66902    0.95773    0.76830   1.00
C6       0.60247    0.90815    0.79390   1.00
C6       0.69807    1.03996    0.92423   1.00
C6       0.76302    1.04355    0.87118   1.00
C6       0.69023    1.07641    0.84844   1.00
C6       0.55306    0.99988    0.79248   1.00
H2       0.60709    1.01458    0.76517   1.00
C6       0.57353    0.97994    0.72552   1.00
H2       0.68142    0.98374    0.78186   1.00
C6       0.69866    0.92404    0.77670   1.00
C6       0.67164    0.96496    0.72328   1.00
H2       0.57669    0.91318    0.81200   1.00
C6       0.58728    0.88878    0.75536   1.00
C6       0.62651    0.87491    0.81443   1.00
C6       0.65429    1.03205    0.93440   1.00
C6       0.72275    1.01766    0.95560   1.00
H2       0.70288    1.07062    0.93142   1.00
H2       0.77449    1.02014    0.88945   1.00
C6       0.78122    1.03669    0.82983   1.00
C6       0.78107    1.08234    0.88707   1.00
H2       0.71125    1.08309    0.82545   1.00
C6       0.65164    1.06637    0.82653   1.00
C6       0.68256    1.11580    0.87031   1.00
H2       0.56154    1.01204    0.82070   1.00
H2       0.53410    0.97480    0.79783   1.00
H2       0.53583    1.02230    0.77769   1.00
H2       0.56892    1.00751    0.71011   1.00
H2       0.59322    0.96239    0.70792   1.00
H2       0.54536    0.96504    0.72600   1.00
H2       0.72828    0.93278    0.76864   1.00
H2       0.69968    0.91644    0.80751   1.00
H2       0.69148    0.89792    0.75996   1.00
H2       0.65638    0.99161    0.71486   1.00
H2       0.70192    0.96873    0.71388   1.00
H2       0.65950    0.94041    0.70696   1.00
H2       0.60986    0.88867    0.73287   1.00
H2       0.57792    0.85859    0.75997   1.00
H2       0.56168    0.90378    0.74421   1.00
H2       0.64598    0.85993    0.79415   1.00
H2       0.64432    0.88518    0.83843   1.00
H2       0.60672    0.85290    0.82640   1.00
H2       0.64812    1.00094    0.93646   1.00
H2       0.64691    1.04489    0.96266   1.00
H2       0.63452    1.04470    0.91301   1.00
H2       0.71375    1.02609    0.98505   1.00
H2       0.71926    0.98618    0.95354   1.00
H2       0.75378    1.02443    0.95350   1.00
H2       0.81298    1.03417    0.83191   1.00
H2       0.77065    1.00956    0.81681   1.00
H2       0.77465    1.06055    0.80979   1.00
H2       0.77084    1.08892    0.91650   1.00
H2       0.81288    1.08000    0.88860   1.00
H2       0.77415    1.10702    0.86814   1.00
H2       0.62844    1.05765    0.84648   1.00
H2       0.64119    1.09101    0.80921   1.00
H2       0.65666    1.04241    0.80643   1.00
H2       0.67456    1.13883    0.84972   1.00
H2       0.65878    1.11299    0.89137   1.00
H2       0.70843    1.12593    0.88579   1.00
C4       1.18584    0.91461    0.91198   1.00
C4       1.14412    0.91415    0.91255   1.00
C3       1.20864    0.89246    0.88540   1.00
C3       1.12116    0.88889    0.88905   1.00
C3       1.20623    0.93796    0.93981   1.00
C3       1.12386    0.94034    0.93782   1.00
C2       1.27012    0.91562    0.91398   1.00
C2       1.05988    0.91438    0.91602   1.00
C3       1.24962    0.89277    0.88649   1.00
C3       1.08019    0.88924    0.89046   1.00
C3       1.24758    0.93843    0.93996   1.00
C3       1.08262    0.93906    0.94001   1.00
H1       1.19615    0.87557    0.86438   1.00
H1       1.13352    0.86933    0.87040   1.00
C5       1.18520    0.96081    0.96720   1.00
C5       1.14480    0.96742    0.96103   1.00
H1       1.26455    0.87594    0.86672   1.00
H1       1.06510    0.87055    0.87255   1.00
H1       1.26180    0.95614    0.95937   1.00
H1       1.06868    0.95622    0.96004   1.00
O3       1.20461    0.97803    0.99791   1.00
O3       1.12599    0.99789    0.97960   1.00
Si1      1.20747    0.95546    1.03978   1.00
Si1      1.11779    1.03804    0.95534   1.00
C6       1.24038    0.98804    1.06235   1.00
C6       1.16098    0.95773    1.06170   1.00
C6       1.22753    0.90815    1.03610   1.00
C6       1.13193    1.03996    0.90577   1.00
C6       1.06698    1.04355    0.95882   1.00
C6       1.13977    1.07641    0.98156   1.00
C6       1.27694    0.99988    1.03752   1.00
H2       1.22291    1.01458    1.06483   1.00
C6       1.25647    0.97994    1.10448   1.00
H2       1.14858    0.98374    1.04814   1.00
C6       1.13134    0.92404    1.05330   1.00
C6       1.15836    0.96496    1.10672   1.00
H2       1.25331    0.91318    1.01800   1.00
C6       1.24272    0.88878    1.07464   1.00
C6       1.20349    0.87491    1.01557   1.00
C6       1.17571    1.03205    0.89560   1.00
C6       1.10725    1.01766    0.87440   1.00
H2       1.12712    1.07062    0.89858   1.00
H2       1.05551    1.02014    0.94055   1.00
C6       1.04878    1.03669    1.00017   1.00
C6       1.04893    1.08234    0.94293   1.00
H2       1.11875    1.08309    1.00455   1.00
C6       1.17836    1.06637    1.00347   1.00
C6       1.14744    1.11580    0.95969   1.00
H2       1.26846    1.01204    1.00930   1.00
H2       1.29590    0.97480    1.03217   1.00
H2       1.29417    1.02230    1.05231   1.00
H2       1.26108    1.00751    1.11989   1.00
H2       1.23678    0.96239    1.12208   1.00
H2       1.28464    0.96504    1.10400   1.00
H2       1.10172    0.93278    1.06136   1.00
H2       1.13032    0.91644    1.02249   1.00
H2       1.13852    0.89792    1.07004   1.00
H2       1.17362    0.99161    1.11514   1.00
H2       1.12808    0.96873    1.11612   1.00
H2       1.17050    0.94041    1.12304   1.00
H2       1.22014    0.88867    1.09713   1.00
H2       1.25208    0.85859    1.07003   1.00
H2       1.26832    0.90378    1.08579   1.00
H2       1.18402    0.85993    1.03585   1.00
H2       1.18568    0.88518    0.99157   1.00
H2       1.22328    0.85290    1.00360   1.00
H2       1.18188    1.00094    0.89354   1.00
H2       1.18309    1.04489    0.86734   1.00
H2       1.19548    1.04470    0.91699   1.00
H2       1.11625    1.02609    0.84495   1.00
H2       1.11074    0.98618    0.87646   1.00
H2       1.07622    1.02443    0.87650   1.00
H2       1.01702    1.03417    0.99809   1.00
H2       1.05935    1.00956    1.01319   1.00
H2       1.05535    1.06055    1.02021   1.00
H2       1.05916    1.08892    0.91350   1.00
H2       1.01712    1.08000    0.94140   1.00
H2       1.05585    1.10702    0.96186   1.00
H2       1.20156    1.05765    0.98352   1.00
H2       1.18881    1.09101    1.02079   1.00
H2       1.17334    1.04241    1.02357   1.00
H2       1.15544    1.13883    0.98028   1.00
H2       1.17122    1.11299    0.93863   1.00
H2       1.12157    1.12593    0.94421   1.00
C4       0.91802    0.64416    0.91461   1.00
C4       0.91745    0.68588    0.91415   1.00
C3       0.94460    0.62136    0.89246   1.00
C3       0.94095    0.70884    0.88889   1.00
C3       0.89019    0.62377    0.93796   1.00
C3       0.89218    0.70614    0.94034   1.00
C2       0.91602    0.55988    0.91562   1.00
C2       0.91398    0.77012    0.91438   1.00
C3       0.94351    0.58038    0.89277   1.00
C3       0.93954    0.74981    0.88924   1.00
C3       0.89004    0.58242    0.93843   1.00
C3       0.88999    0.74738    0.93906   1.00
H1       0.96562    0.63385    0.87557   1.00
H1       0.95960    0.69648    0.86933   1.00
C5       0.86280    0.64480    0.96081   1.00
C5       0.86897    0.68520    0.96742   1.00
H1       0.96328    0.56545    0.87594   1.00
H1       0.95745    0.76490    0.87055   1.00
H1       0.87063    0.56820    0.95614   1.00
H1       0.86996    0.76132    0.95622   1.00
O3       0.83209    0.62539    0.97803   1.00
O3       0.85040    0.70401    0.99789   1.00
Si1      0.79022    0.62253    0.95546   1.00
Si1      0.87466    0.71221    1.03804   1.00
C6       0.76765    0.58962    0.98804   1.00
C6       0.76830    0.66902    0.95773   1.00
C6       0.79390    0.60247    0.90815   1.00
C6       0.92423    0.69807    1.03996   1.00
C6       0.87118    0.76302    1.04355   1.00
C6       0.84844    0.69023    1.07641   1.00
C6       0.79248    0.55306    0.99988   1.00
H2       0.76517    0.60709    1.01458   1.00
C6       0.72552    0.57353    0.97994   1.00
H2       0.78186    0.68142    0.98374   1.00
C6       0.77670    0.69866    0.92404   1.00
C6       0.72328    0.67164    0.96496   1.00
H2       0.81200    0.57669    0.91318   1.00
C6       0.75536    0.58728    0.88878   1.00
C6       0.81443    0.62651    0.87491   1.00
C6       0.93440    0.65429    1.03205   1.00
C6       0.95560    0.72275    1.01766   1.00
H2       0.93142    0.70288    1.07062   1.00
H2       0.88945    0.77449    1.02014   1.00
C6       0.82983    0.78122    1.03669   1.00
C6       0.88707    0.78107    1.08234   1.00
H2       0.82545    0.71125    1.08309   1.00
C6       0.82653    0.65164    1.06637   1.00
C6       0.87031    0.68256    1.11580   1.00
H2       0.82070    0.56154    1.01204   1.00
H2       0.79783    0.53410    0.97480   1.00
H2       0.77769    0.53583    1.02230   1.00
H2       0.71011    0.56892    1.00751   1.00
H2       0.70792    0.59322    0.96239   1.00
H2       0.72600    0.54536    0.96504   1.00
H2       0.76864    0.72828    0.93278   1.00
H2       0.80751    0.69968    0.91644   1.00
H2       0.75996    0.69148    0.89792   1.00
H2       0.71486    0.65638    0.99161   1.00
H2       0.71388    0.70192    0.96873   1.00
H2       0.70696    0.65950    0.94041   1.00
H2       0.73287    0.60986    0.88867   1.00
H2       0.75997    0.57792    0.85859   1.00
H2       0.74421    0.56168    0.90378   1.00
H2       0.79415    0.64598    0.85993   1.00
H2       0.83843    0.64432    0.88518   1.00
H2       0.82640    0.60672    0.85290   1.00
H2       0.93646    0.64812    1.00094   1.00
H2       0.96266    0.64691    1.04489   1.00
H2       0.91301    0.63452    1.04470   1.00
H2       0.98505    0.71375    1.02609   1.00
H2       0.95354    0.71926    0.98618   1.00
H2       0.95350    0.75378    1.02443   1.00
H2       0.83191    0.81298    1.03417   1.00
H2       0.81681    0.77065    1.00956   1.00
H2       0.80979    0.77465    1.06055   1.00
H2       0.91650    0.77084    1.08892   1.00
H2       0.88860    0.81288    1.08000   1.00
H2       0.86814    0.77415    1.10702   1.00
H2       0.84648    0.62844    1.05765   1.00
H2       0.80921    0.64119    1.09101   1.00
H2       0.80643    0.65666    1.04241   1.00
H2       0.84972    0.67456    1.13883   1.00
H2       0.89137    0.65878    1.11299   1.00
H2       0.88579    0.70843    1.12593   1.00
C4       0.91461    0.91802    0.64416   1.00
C4       0.91415    0.91745    0.68588   1.00
C3       0.89246    0.94460    0.62136   1.00
C3       0.88889    0.94095    0.70884   1.00
C3       0.93796    0.89019    0.62377   1.00
C3       0.94034    0.89218    0.70614   1.00
C2       0.91562    0.91602    0.55988   1.00
C2       0.91438    0.91398    0.77012   1.00
C3       0.89277    0.94351    0.58038   1.00
C3       0.88924    0.93954    0.74981   1.00
C3       0.93843    0.89004    0.58242   1.00
C3       0.93906    0.88999    0.74738   1.00
H1       0.87557    0.96562    0.63385   1.00
H1       0.86933    0.95960    0.69648   1.00
C5       0.96081    0.86280    0.64480   1.00
C5       0.96742    0.86897    0.68520   1.00
H1       0.87594    0.96328    0.56545   1.00
H1       0.87055    0.95745    0.76490   1.00
H1       0.95614    0.87063    0.56820   1.00
H1       0.95622    0.86996    0.76132   1.00
O3       0.97803    0.83209    0.62539   1.00
O3       0.99789    0.85040    0.70401   1.00
Si1      0.95546    0.79022    0.62253   1.00
Si1      1.03804    0.87466    0.71221   1.00
C6       0.98804    0.76765    0.58962   1.00
C6       0.95773    0.76830    0.66902   1.00
C6       0.90815    0.79390    0.60247   1.00
C6       1.03996    0.92423    0.69807   1.00
C6       1.04355    0.87118    0.76302   1.00
C6       1.07641    0.84844    0.69023   1.00
C6       0.99988    0.79248    0.55306   1.00
H2       1.01458    0.76517    0.60709   1.00
C6       0.97994    0.72552    0.57353   1.00
H2       0.98374    0.78186    0.68142   1.00
C6       0.92404    0.77670    0.69866   1.00
C6       0.96496    0.72328    0.67164   1.00
H2       0.91318    0.81200    0.57669   1.00
C6       0.88878    0.75536    0.58728   1.00
C6       0.87491    0.81443    0.62651   1.00
C6       1.03205    0.93440    0.65429   1.00
C6       1.01766    0.95560    0.72275   1.00
H2       1.07062    0.93142    0.70288   1.00
H2       1.02014    0.88945    0.77449   1.00
C6       1.03669    0.82983    0.78122   1.00
C6       1.08234    0.88707    0.78107   1.00
H2       1.08309    0.82545    0.71125   1.00
C6       1.06637    0.82653    0.65164   1.00
C6       1.11580    0.87031    0.68256   1.00
H2       1.01204    0.82070    0.56154   1.00
H2       0.97480    0.79783    0.53410   1.00
H2       1.02230    0.77769    0.53583   1.00
H2       1.00751    0.71011    0.56892   1.00
H2       0.96239    0.70792    0.59322   1.00
H2       0.96504    0.72600    0.54536   1.00
H2       0.93278    0.76864    0.72828   1.00
H2       0.91644    0.80751    0.69968   1.00
H2       0.89792    0.75996    0.69148   1.00
H2       0.99161    0.71486    0.65638   1.00
H2       0.96873    0.71388    0.70192   1.00
H2       0.94041    0.70696    0.65950   1.00
H2       0.88867    0.73287    0.60986   1.00
H2       0.85859    0.75997    0.57792   1.00
H2       0.90378    0.74421    0.56168   1.00
H2       0.85993    0.79415    0.64598   1.00
H2       0.88518    0.83843    0.64432   1.00
H2       0.85290    0.82640    0.60672   1.00
H2       1.00094    0.93646    0.64812   1.00
H2       1.04489    0.96266    0.64691   1.00
H2       1.04470    0.91301    0.63452   1.00
H2       1.02609    0.98505    0.71375   1.00
H2       0.98618    0.95354    0.71926   1.00
H2       1.02443    0.95350    0.75378   1.00
H2       1.03417    0.83191    0.81298   1.00
H2       1.00956    0.81681    0.77065   1.00
H2       1.06055    0.80979    0.77465   1.00
H2       1.08892    0.91650    0.77084   1.00
H2       1.08000    0.88860    0.81288   1.00
H2       1.10702    0.86814    0.77415   1.00
H2       1.05765    0.84648    0.62844   1.00
H2       1.09101    0.80921    0.64119   1.00
H2       1.04241    0.80643    0.65666   1.00
H2       1.13883    0.84972    0.67456   1.00
H2       1.11299    0.89137    0.65878   1.00
H2       1.12593    0.88579    0.70843   1.00
C4       0.41461    0.41198    1.18584   1.00
C4       0.41415    0.41255    1.14412   1.00
C3       0.39246    0.38540    1.20864   1.00
C3       0.38889    0.38905    1.12116   1.00
C3       0.43796    0.43981    1.20623   1.00
C3       0.44034    0.43782    1.12386   1.00
C2       0.41562    0.41398    1.27012   1.00
C2       0.41438    0.41602    1.05988   1.00
C3       0.39277    0.38649    1.24962   1.00
C3       0.38924    0.39046    1.08019   1.00
C3       0.43843    0.43996    1.24758   1.00
C3       0.43906    0.44001    1.08262   1.00
H1       0.37557    0.36438    1.19615   1.00
H1       0.36933    0.37040    1.13352   1.00
C5       0.46081    0.46720    1.18520   1.00
C5       0.46742    0.46103    1.14480   1.00
H1       0.37594    0.36672    1.26455   1.00
H1       0.37055    0.37255    1.06510   1.00
H1       0.45614    0.45937    1.26180   1.00
H1       0.45622    0.46004    1.06868   1.00
O3       0.47803    0.49791    1.20461   1.00
O3       0.49789    0.47960    1.12599   1.00
Si1      0.45546    0.53978    1.20747   1.00
Si1      0.53804    0.45534    1.11779   1.00
C6       0.48804    0.56235    1.24038   1.00
C6       0.45773    0.56170    1.16098   1.00
C6       0.40815    0.53610    1.22753   1.00
C6       0.53996    0.40577    1.13193   1.00
C6       0.54355    0.45882    1.06698   1.00
C6       0.57641    0.48156    1.13977   1.00
C6       0.49988    0.53752    1.27694   1.00
H2       0.51458    0.56483    1.22291   1.00
C6       0.47994    0.60448    1.25647   1.00
H2       0.48374    0.54814    1.14858   1.00
C6       0.42404    0.55330    1.13134   1.00
C6       0.46496    0.60672    1.15836   1.00
H2       0.41318    0.51800    1.25331   1.00
C6       0.38878    0.57464    1.24272   1.00
C6       0.37491    0.51557    1.20349   1.00
C6       0.53205    0.39560    1.17571   1.00
C6       0.51766    0.37440    1.10725   1.00
H2       0.57062    0.39858    1.12712   1.00
H2       0.52014    0.44055    1.05551   1.00
C6       0.53669    0.50017    1.04878   1.00
C6       0.58234    0.44293    1.04893   1.00
H2       0.58309    0.50455    1.11875   1.00
C6       0.56637    0.50347    1.17836   1.00
C6       0.61580    0.45969    1.14744   1.00
H2       0.51204    0.50930    1.26846   1.00
H2       0.47480    0.53217    1.29590   1.00
H2       0.52230    0.55231    1.29417   1.00
H2       0.50751    0.61989    1.26108   1.00
H2       0.46239    0.62208    1.23678   1.00
H2       0.46504    0.60400    1.28464   1.00
H2       0.43278    0.56136    1.10172   1.00
H2       0.41644    0.52249    1.13032   1.00
H2       0.39792    0.57004    1.13852   1.00
H2       0.49161    0.61514    1.17362   1.00
H2       0.46873    0.61612    1.12808   1.00
H2       0.44041    0.62304    1.17050   1.00
H2       0.38867    0.59713    1.22014   1.00
H2       0.35859    0.57003    1.25208   1.00
H2       0.40378    0.58579    1.26832   1.00
H2       0.35993    0.53585    1.18402   1.00
H2       0.38518    0.49157    1.18568   1.00
H2       0.35290    0.50360    1.22328   1.00
H2       0.50094    0.39354    1.18188   1.00
H2       0.54489    0.36734    1.18309   1.00
H2       0.54470    0.41699    1.19548   1.00
H2       0.52609    0.34495    1.11625   1.00
H2       0.48618    0.37646    1.11074   1.00
H2       0.52443    0.37650    1.07622   1.00
H2       0.53417    0.49809    1.01702   1.00
H2       0.50956    0.51319    1.05935   1.00
H2       0.56055    0.52021    1.05535   1.00
H2       0.58892    0.41350    1.05916   1.00
H2       0.58000    0.44140    1.01712   1.00
H2       0.60702    0.46186    1.05585   1.00
H2       0.55765    0.48352    1.20156   1.00
H2       0.59101    0.52079    1.18881   1.00
H2       0.54241    0.52357    1.17334   1.00
H2       0.63883    0.48028    1.15544   1.00
H2       0.61299    0.43863    1.17122   1.00
H2       0.62593    0.44421    1.12157   1.00
C4       0.41198    0.68584    0.91461   1.00
C4       0.41255    0.64412    0.91415   1.00
C3       0.38540    0.70864    0.89246   1.00
C3       0.38905    0.62116    0.88889   1.00
C3       0.43981    0.70623    0.93796   1.00
C3       0.43782    0.62386    0.94034   1.00
C2       0.41398    0.77012    0.91562   1.00
C2       0.41602    0.55988    0.91438   1.00
C3       0.38649    0.74962    0.89277   1.00
C3       0.39046    0.58019    0.88924   1.00
C3       0.43996    0.74758    0.93843   1.00
C3       0.44001    0.58262    0.93906   1.00
H1       0.36438    0.69615    0.87557   1.00
H1       0.37040    0.63352    0.86933   1.00
C5       0.46720    0.68520    0.96081   1.00
C5       0.46103    0.64480    0.96742   1.00
H1       0.36672    0.76455    0.87594   1.00
H1       0.37255    0.56510    0.87055   1.00
H1       0.45937    0.76180    0.95614   1.00
H1       0.46004    0.56868    0.95622   1.00
O3       0.49791    0.70461    0.97803   1.00
O3       0.47960    0.62599    0.99789   1.00
Si1      0.53978    0.70747    0.95546   1.00
Si1      0.45534    0.61779    1.03804   1.00
C6       0.56235    0.74038    0.98804   1.00
C6       0.56170    0.66098    0.95773   1.00
C6       0.53610    0.72753    0.90815   1.00
C6       0.40577    0.63193    1.03996   1.00
C6       0.45882    0.56698    1.04355   1.00
C6       0.48156    0.63977    1.07641   1.00
C6       0.53752    0.77694    0.99988   1.00
H2       0.56483    0.72291    1.01458   1.00
C6       0.60448    0.75647    0.97994   1.00
H2       0.54814    0.64858    0.98374   1.00
C6       0.55330    0.63134    0.92404   1.00
C6       0.60672    0.65836    0.96496   1.00
H2       0.51800    0.75331    0.91318   1.00
C6       0.57464    0.74272    0.88878   1.00
C6       0.51557    0.70349    0.87491   1.00
C6       0.39560    0.67571    1.03205   1.00
C6       0.37440    0.60725    1.01766   1.00
H2       0.39858    0.62712    1.07062   1.00
H2       0.44055    0.55551    1.02014   1.00
C6       0.50017    0.54878    1.03669   1.00
C6       0.44293    0.54893    1.08234   1.00
H2       0.50455    0.61875    1.08309   1.00
C6       0.50347    0.67836    1.06637   1.00
C6       0.45969    0.64744    1.11580   1.00
H2       0.50930    0.76846    1.01204   1.00
H2       0.53217    0.79590    0.97480   1.00
H2       0.55231    0.79417    1.02230   1.00
H2       0.61989    0.76108    1.00751   1.00
H2       0.62208    0.73678    0.96239   1.00
H2       0.60400    0.78464    0.96504   1.00
H2       0.56136    0.60172    0.93278   1.00
H2       0.52249    0.63032    0.91644   1.00
H2       0.57004    0.63852    0.89792   1.00
H2       0.61514    0.67362    0.99161   1.00
H2       0.61612    0.62808    0.96873   1.00
H2       0.62304    0.67050    0.94041   1.00
H2       0.59713    0.72014    0.88867   1.00
H2       0.57003    0.75208    0.85859   1.00
H2       0.58579    0.76832    0.90378   1.00
H2       0.53585    0.68402    0.85993   1.00
H2       0.49157    0.68568    0.88518   1.00
H2       0.50360    0.72328    0.85290   1.00
H2       0.39354    0.68188    1.00094   1.00
H2       0.36734    0.68309    1.04489   1.00
H2       0.41699    0.69548    1.04470   1.00
H2       0.34495    0.61625    1.02609   1.00
H2       0.37646    0.61074    0.98618   1.00
H2       0.37650    0.57622    1.02443   1.00
H2       0.49809    0.51702    1.03417   1.00
H2       0.51319    0.55935    1.00956   1.00
H2       0.52021    0.55535    1.06055   1.00
H2       0.41350    0.55916    1.08892   1.00
H2       0.44140    0.51712    1.08000   1.00
H2       0.46186    0.55585    1.10702   1.00
H2       0.48352    0.70156    1.05765   1.00
H2       0.52079    0.68881    1.09101   1.00
H2       0.52357    0.67334    1.04241   1.00
H2       0.48028    0.65544    1.13883   1.00
H2       0.43863    0.67122    1.11299   1.00
H2       0.44421    0.62157    1.12593   1.00
C4       0.14416    0.41461    0.91802   1.00
C4       0.18588    0.41415    0.91745   1.00
C3       0.12136    0.39246    0.94460   1.00
C3       0.20884    0.38889    0.94095   1.00
C3       0.12377    0.43796    0.89019   1.00
C3       0.20614    0.44034    0.89218   1.00
C2       0.05988    0.41562    0.91602   1.00
C2       0.27012    0.41438    0.91398   1.00
C3       0.08038    0.39277    0.94351   1.00
C3       0.24981    0.38924    0.93954   1.00
C3       0.08242    0.43843    0.89004   1.00
C3       0.24738    0.43906    0.88999   1.00
H1       0.13385    0.37557    0.96562   1.00
H1       0.19648    0.36933    0.95960   1.00
C5       0.14480    0.46081    0.86280   1.00
C5       0.18520    0.46742    0.86897   1.00
H1       0.06545    0.37594    0.96328   1.00
H1       0.26490    0.37055    0.95745   1.00
H1       0.06820    0.45614    0.87063   1.00
H1       0.26132    0.45622    0.86996   1.00
O3       0.12539    0.47803    0.83209   1.00
O3       0.20401    0.49789    0.85040   1.00
Si1      0.12253    0.45546    0.79022   1.00
Si1      0.21221    0.53804    0.87466   1.00
C6       0.08962    0.48804    0.76765   1.00
C6       0.16902    0.45773    0.76830   1.00
C6       0.10247    0.40815    0.79390   1.00
C6       0.19807    0.53996    0.92423   1.00
C6       0.26302    0.54355    0.87118   1.00
C6       0.19023    0.57641    0.84844   1.00
C6       0.05306    0.49988    0.79248   1.00
H2       0.10709    0.51458    0.76517   1.00
C6       0.07353    0.47994    0.72552   1.00
H2       0.18142    0.48374    0.78186   1.00
C6       0.19866    0.42404    0.77670   1.00
C6       0.17164    0.46496    0.72328   1.00
H2       0.07669    0.41318    0.81200   1.00
C6       0.08728    0.38878    0.75536   1.00
C6       0.12651    0.37491    0.81443   1.00
C6       0.15429    0.53205    0.93440   1.00
C6       0.22275    0.51766    0.95560   1.00
H2       0.20288    0.57062    0.93142   1.00
H2       0.27449    0.52014    0.88945   1.00
C6       0.28122    0.53669    0.82983   1.00
C6       0.28107    0.58234    0.88707   1.00
H2       0.21125    0.58309    0.82545   1.00
C6       0.15164    0.56637    0.82653   1.00
C6       0.18256    0.61580    0.87031   1.00
H2       0.06154    0.51204    0.82070   1.00
H2       0.03410    0.47480    0.79783   1.00
H2       0.03583    0.52230    0.77769   1.00
H2       0.06892    0.50751    0.71011   1.00
H2       0.09322    0.46239    0.70792   1.00
H2       0.04536    0.46504    0.72600   1.00
H2       0.22828    0.43278    0.76864   1.00
H2       0.19968    0.41644    0.80751   1.00
H2       0.19148    0.39792    0.75996   1.00
H2       0.15638    0.49161    0.71486   1.00
H2       0.20192    0.46873    0.71388   1.00
H2       0.15950    0.44041    0.70696   1.00
H2       0.10986    0.38867    0.73287   1.00
H2       0.07792    0.35859    0.75997   1.00
H2       0.06168    0.40378    0.74421   1.00
H2       0.14598    0.35993    0.79415   1.00
H2       0.14432    0.38518    0.83843   1.00
H2       0.10672    0.35290    0.82640   1.00
H2       0.14812    0.50094    0.93646   1.00
H2       0.14691    0.54489    0.96266   1.00
H2       0.13452    0.54470    0.91301   1.00
H2       0.21375    0.52609    0.98505   1.00
H2       0.21926    0.48618    0.95354   1.00
H2       0.25378    0.52443    0.95350   1.00
H2       0.31298    0.53417    0.83191   1.00
H2       0.27065    0.50956    0.81681   1.00
H2       0.27465    0.56055    0.80979   1.00
H2       0.27084    0.58892    0.91650   1.00
H2       0.31288    0.58000    0.88860   1.00
H2       0.27415    0.60702    0.86814   1.00
H2       0.12844    0.55765    0.84648   1.00
H2       0.14119    0.59101    0.80921   1.00
H2       0.15666    0.54241    0.80643   1.00
H2       0.17456    0.63883    0.84972   1.00
H2       0.15878    0.61299    0.89137   1.00
H2       0.20843    0.62593    0.88579   1.00
C4       0.68584    0.41461    0.91198   1.00
C4       0.64412    0.41415    0.91255   1.00
C3       0.70864    0.39246    0.88540   1.00
C3       0.62116    0.38889    0.88905   1.00
C3       0.70623    0.43796    0.93981   1.00
C3       0.62386    0.44034    0.93782   1.00
C2       0.77012    0.41562    0.91398   1.00
C2       0.55988    0.41438    0.91602   1.00
C3       0.74962    0.39277    0.88649   1.00
C3       0.58019    0.38924    0.89046   1.00
C3       0.74758    0.43843    0.93996   1.00
C3       0.58262    0.43906    0.94001   1.00
H1       0.69615    0.37557    0.86438   1.00
H1       0.63352    0.36933    0.87040   1.00
C5       0.68520    0.46081    0.96720   1.00
C5       0.64480    0.46742    0.96103   1.00
H1       0.76455    0.37594    0.86672   1.00
H1       0.56510    0.37055    0.87255   1.00
H1       0.76180    0.45614    0.95937   1.00
H1       0.56868    0.45622    0.96004   1.00
O3       0.70461    0.47803    0.99791   1.00
O3       0.62599    0.49789    0.97960   1.00
Si1      0.70747    0.45546    1.03978   1.00
Si1      0.61779    0.53804    0.95534   1.00
C6       0.74038    0.48804    1.06235   1.00
C6       0.66098    0.45773    1.06170   1.00
C6       0.72753    0.40815    1.03610   1.00
C6       0.63193    0.53996    0.90577   1.00
C6       0.56698    0.54355    0.95882   1.00
C6       0.63977    0.57641    0.98156   1.00
C6       0.77694    0.49988    1.03752   1.00
H2       0.72291    0.51458    1.06483   1.00
C6       0.75647    0.47994    1.10448   1.00
H2       0.64858    0.48374    1.04814   1.00
C6       0.63134    0.42404    1.05330   1.00
C6       0.65836    0.46496    1.10672   1.00
H2       0.75331    0.41318    1.01800   1.00
C6       0.74272    0.38878    1.07464   1.00
C6       0.70349    0.37491    1.01557   1.00
C6       0.67571    0.53205    0.89560   1.00
C6       0.60725    0.51766    0.87440   1.00
H2       0.62712    0.57062    0.89858   1.00
H2       0.55551    0.52014    0.94055   1.00
C6       0.54878    0.53669    1.00017   1.00
C6       0.54893    0.58234    0.94293   1.00
H2       0.61875    0.58309    1.00455   1.00
C6       0.67836    0.56637    1.00347   1.00
C6       0.64744    0.61580    0.95969   1.00
H2       0.76846    0.51204    1.00930   1.00
H2       0.79590    0.47480    1.03217   1.00
H2       0.79417    0.52230    1.05231   1.00
H2       0.76108    0.50751    1.11989   1.00
H2       0.73678    0.46239    1.12208   1.00
H2       0.78464    0.46504    1.10400   1.00
H2       0.60172    0.43278    1.06136   1.00
H2       0.63032    0.41644    1.02249   1.00
H2       0.63852    0.39792    1.07004   1.00
H2       0.67362    0.49161    1.11514   1.00
H2       0.62808    0.46873    1.11612   1.00
H2       0.67050    0.44041    1.12304   1.00
H2       0.72014    0.38867    1.09713   1.00
H2       0.75208    0.35859    1.07003   1.00
H2       0.76832    0.40378    1.08579   1.00
H2       0.68402    0.35993    1.03585   1.00
H2       0.68568    0.38518    0.99157   1.00
H2       0.72328    0.35290    1.00360   1.00
H2       0.68188    0.50094    0.89354   1.00
H2       0.68309    0.54489    0.86734   1.00
H2       0.69548    0.54470    0.91699   1.00
H2       0.61625    0.52609    0.84495   1.00
H2       0.61074    0.48618    0.87646   1.00
H2       0.57622    0.52443    0.87650   1.00
H2       0.51702    0.53417    0.99809   1.00
H2       0.55935    0.50956    1.01319   1.00
H2       0.55535    0.56055    1.02021   1.00
H2       0.55916    0.58892    0.91350   1.00
H2       0.51712    0.58000    0.94140   1.00
H2       0.55585    0.60702    0.96186   1.00
H2       0.70156    0.55765    0.98352   1.00
H2       0.68881    0.59101    1.02079   1.00
H2       0.67334    0.54241    1.02357   1.00
H2       0.65544    0.63883    0.98028   1.00
H2       0.67122    0.61299    0.93863   1.00
H2       0.62157    0.62593    0.94421   1.00
C4       0.41802    0.14416    0.91461   1.00
C4       0.41745    0.18588    0.91415   1.00
C3       0.44460    0.12136    0.89246   1.00
C3       0.44095    0.20884    0.88889   1.00
C3       0.39019    0.12377    0.93796   1.00
C3       0.39218    0.20614    0.94034   1.00
C2       0.41602    0.05988    0.91562   1.00
C2       0.41398    0.27012    0.91438   1.00
C3       0.44351    0.08038    0.89277   1.00
C3       0.43954    0.24981    0.88924   1.00
C3       0.39004    0.08242    0.93843   1.00
C3       0.38999    0.24738    0.93906   1.00
H1       0.46562    0.13385    0.87557   1.00
H1       0.45960    0.19648    0.86933   1.00
C5       0.36280    0.14480    0.96081   1.00
C5       0.36897    0.18520    0.96742   1.00
H1       0.46328    0.06545    0.87594   1.00
H1       0.45745    0.26490    0.87055   1.00
H1       0.37063    0.06820    0.95614   1.00
H1       0.36996    0.26132    0.95622   1.00
O3       0.33209    0.12539    0.97803   1.00
O3       0.35040    0.20401    0.99789   1.00
Si1      0.29022    0.12253    0.95546   1.00
Si1      0.37466    0.21221    1.03804   1.00
C6       0.26765    0.08962    0.98804   1.00
C6       0.26830    0.16902    0.95773   1.00
C6       0.29390    0.10247    0.90815   1.00
C6       0.42423    0.19807    1.03996   1.00
C6       0.37118    0.26302    1.04355   1.00
C6       0.34844    0.19023    1.07641   1.00
C6       0.29248    0.05306    0.99988   1.00
H2       0.26517    0.10709    1.01458   1.00
C6       0.22552    0.07353    0.97994   1.00
H2       0.28186    0.18142    0.98374   1.00
C6       0.27670    0.19866    0.92404   1.00
C6       0.22328    0.17164    0.96496   1.00
H2       0.31200    0.07669    0.91318   1.00
C6       0.25536    0.08728    0.88878   1.00
C6       0.31443    0.12651    0.87491   1.00
C6       0.43440    0.15429    1.03205   1.00
C6       0.45560    0.22275    1.01766   1.00
H2       0.43142    0.20288    1.07062   1.00
H2       0.38945    0.27449    1.02014   1.00
C6       0.32983    0.28122    1.03669   1.00
C6       0.38707    0.28107    1.08234   1.00
H2       0.32545    0.21125    1.08309   1.00
C6       0.32653    0.15164    1.06637   1.00
C6       0.37031    0.18256    1.11580   1.00
H2       0.32070    0.06154    1.01204   1.00
H2       0.29783    0.03410    0.97480   1.00
H2       0.27769    0.03583    1.02230   1.00
H2       0.21011    0.06892    1.00751   1.00
H2       0.20792    0.09322    0.96239   1.00
H2       0.22600    0.04536    0.96504   1.00
H2       0.26864    0.22828    0.93278   1.00
H2       0.30751    0.19968    0.91644   1.00
H2       0.25996    0.19148    0.89792   1.00
H2       0.21486    0.15638    0.99161   1.00
H2       0.21388    0.20192    0.96873   1.00
H2       0.20696    0.15950    0.94041   1.00
H2       0.23287    0.10986    0.88867   1.00
H2       0.25997    0.07792    0.85859   1.00
H2       0.24421    0.06168    0.90378   1.00
H2       0.29415    0.14598    0.85993   1.00
H2       0.33843    0.14432    0.88518   1.00
H2       0.32640    0.10672    0.85290   1.00
H2       0.43646    0.14812    1.00094   1.00
H2       0.46266    0.14691    1.04489   1.00
H2       0.41301    0.13452    1.04470   1.00
H2       0.48505    0.21375    1.02609   1.00
H2       0.45354    0.21926    0.98618   1.00
H2       0.45350    0.25378    1.02443   1.00
H2       0.33191    0.31298    1.03417   1.00
H2       0.31681    0.27065    1.00956   1.00
H2       0.30979    0.27465    1.06055   1.00
H2       0.41650    0.27084    1.08892   1.00
H2       0.38860    0.31288    1.08000   1.00
H2       0.36814    0.27415    1.10702   1.00
H2       0.34648    0.12844    1.05765   1.00
H2       0.30921    0.14119    1.09101   1.00
H2       0.30643    0.15666    1.04241   1.00
H2       0.34972    0.17456    1.13883   1.00
H2       0.39137    0.15878    1.11299   1.00
H2       0.38579    0.20843    1.12593   1.00
C4       0.41461    0.41802    0.64416   1.00
C4       0.41415    0.41745    0.68588   1.00
C3       0.39246    0.44460    0.62136   1.00
C3       0.38889    0.44095    0.70884   1.00
C3       0.43796    0.39019    0.62377   1.00
C3       0.44034    0.39218    0.70614   1.00
C2       0.41562    0.41602    0.55988   1.00
C2       0.41438    0.41398    0.77012   1.00
C3       0.39277    0.44351    0.58038   1.00
C3       0.38924    0.43954    0.74981   1.00
C3       0.43843    0.39004    0.58242   1.00
C3       0.43906    0.38999    0.74738   1.00
H1       0.37557    0.46562    0.63385   1.00
H1       0.36933    0.45960    0.69648   1.00
C5       0.46081    0.36280    0.64480   1.00
C5       0.46742    0.36897    0.68520   1.00
H1       0.37594    0.46328    0.56545   1.00
H1       0.37055    0.45745    0.76490   1.00
H1       0.45614    0.37063    0.56820   1.00
H1       0.45622    0.36996    0.76132   1.00
O3       0.47803    0.33209    0.62539   1.00
O3       0.49789    0.35040    0.70401   1.00
Si1      0.45546    0.29022    0.62253   1.00
Si1      0.53804    0.37466    0.71221   1.00
C6       0.48804    0.26765    0.58962   1.00
C6       0.45773    0.26830    0.66902   1.00
C6       0.40815    0.29390    0.60247   1.00
C6       0.53996    0.42423    0.69807   1.00
C6       0.54355    0.37118    0.76302   1.00
C6       0.57641    0.34844    0.69023   1.00
C6       0.49988    0.29248    0.55306   1.00
H2       0.51458    0.26517    0.60709   1.00
C6       0.47994    0.22552    0.57353   1.00
H2       0.48374    0.28186    0.68142   1.00
C6       0.42404    0.27670    0.69866   1.00
C6       0.46496    0.22328    0.67164   1.00
H2       0.41318    0.31200    0.57669   1.00
C6       0.38878    0.25536    0.58728   1.00
C6       0.37491    0.31443    0.62651   1.00
C6       0.53205    0.43440    0.65429   1.00
C6       0.51766    0.45560    0.72275   1.00
H2       0.57062    0.43142    0.70288   1.00
H2       0.52014    0.38945    0.77449   1.00
C6       0.53669    0.32983    0.78122   1.00
C6       0.58234    0.38707    0.78107   1.00
H2       0.58309    0.32545    0.71125   1.00
C6       0.56637    0.32653    0.65164   1.00
C6       0.61580    0.37031    0.68256   1.00
H2       0.51204    0.32070    0.56154   1.00
H2       0.47480    0.29783    0.53410   1.00
H2       0.52230    0.27769    0.53583   1.00
H2       0.50751    0.21011    0.56892   1.00
H2       0.46239    0.20792    0.59322   1.00
H2       0.46504    0.22600    0.54536   1.00
H2       0.43278    0.26864    0.72828   1.00
H2       0.41644    0.30751    0.69968   1.00
H2       0.39792    0.25996    0.69148   1.00
H2       0.49161    0.21486    0.65638   1.00
H2       0.46873    0.21388    0.70192   1.00
H2       0.44041    0.20696    0.65950   1.00
H2       0.38867    0.23287    0.60986   1.00
H2       0.35859    0.25997    0.57792   1.00
H2       0.40378    0.24421    0.56168   1.00
H2       0.35993    0.29415    0.64598   1.00
H2       0.38518    0.33843    0.64432   1.00
H2       0.35290    0.32640    0.60672   1.00
H2       0.50094    0.43646    0.64812   1.00
H2       0.54489    0.46266    0.64691   1.00
H2       0.54470    0.41301    0.63452   1.00
H2       0.52609    0.48505    0.71375   1.00
H2       0.48618    0.45354    0.71926   1.00
H2       0.52443    0.45350    0.75378   1.00
H2       0.53417    0.33191    0.81298   1.00
H2       0.50956    0.31681    0.77065   1.00
H2       0.56055    0.30979    0.77465   1.00
H2       0.58892    0.41650    0.77084   1.00
H2       0.58000    0.38860    0.81288   1.00
H2       0.60702    0.36814    0.77415   1.00
H2       0.55765    0.34648    0.62844   1.00
H2       0.59101    0.30921    0.64119   1.00
H2       0.54241    0.30643    0.65666   1.00
H2       0.63883    0.34972    0.67456   1.00
H2       0.61299    0.39137    0.65878   1.00
H2       0.62593    0.38579    0.70843   1.00
C4       0.41461    0.91198    0.68584   1.00
C4       0.41415    0.91255    0.64412   1.00
C3       0.39246    0.88540    0.70864   1.00
C3       0.38889    0.88905    0.62116   1.00
C3       0.43796    0.93981    0.70623   1.00
C3       0.44034    0.93782    0.62386   1.00
C2       0.41562    0.91398    0.77012   1.00
C2       0.41438    0.91602    0.55988   1.00
C3       0.39277    0.88649    0.74962   1.00
C3       0.38924    0.89046    0.58019   1.00
C3       0.43843    0.93996    0.74758   1.00
C3       0.43906    0.94001    0.58262   1.00
H1       0.37557    0.86438    0.69615   1.00
H1       0.36933    0.87040    0.63352   1.00
C5       0.46081    0.96720    0.68520   1.00
C5       0.46742    0.96103    0.64480   1.00
H1       0.37594    0.86672    0.76455   1.00
H1       0.37055    0.87255    0.56510   1.00
H1       0.45614    0.95937    0.76180   1.00
H1       0.45622    0.96004    0.56868   1.00
O3       0.47803    0.99791    0.70461   1.00
O3       0.49789    0.97960    0.62599   1.00
Si1      0.45546    1.03978    0.70747   1.00
Si1      0.53804    0.95534    0.61779   1.00
C6       0.48804    1.06235    0.74038   1.00
C6       0.45773    1.06170    0.66098   1.00
C6       0.40815    1.03610    0.72753   1.00
C6       0.53996    0.90577    0.63193   1.00
C6       0.54355    0.95882    0.56698   1.00
C6       0.57641    0.98156    0.63977   1.00
C6       0.49988    1.03752    0.77694   1.00
H2       0.51458    1.06483    0.72291   1.00
C6       0.47994    1.10448    0.75647   1.00
H2       0.48374    1.04814    0.64858   1.00
C6       0.42404    1.05330    0.63134   1.00
C6       0.46496    1.10672    0.65836   1.00
H2       0.41318    1.01800    0.75331   1.00
C6       0.38878    1.07464    0.74272   1.00
C6       0.37491    1.01557    0.70349   1.00
C6       0.53205    0.89560    0.67571   1.00
C6       0.51766    0.87440    0.60725   1.00
H2       0.57062    0.89858    0.62712   1.00
H2       0.52014    0.94055    0.55551   1.00
C6       0.53669    1.00017    0.54878   1.00
C6       0.58234    0.94293    0.54893   1.00
H2       0.58309    1.00455    0.61875   1.00
C6       0.56637    1.00347    0.67836   1.00
C6       0.61580    0.95969    0.64744   1.00
H2       0.51204    1.00930    0.76846   1.00
H2       0.47480    1.03217    0.79590   1.00
H2       0.52230    1.05231    0.79417   1.00
H2       0.50751    1.11989    0.76108   1.00
H2       0.46239    1.12208    0.73678   1.00
H2       0.46504    1.10400    0.78464   1.00
H2       0.43278    1.06136    0.60172   1.00
H2       0.41644    1.02249    0.63032   1.00
H2       0.39792    1.07004    0.63852   1.00
H2       0.49161    1.11514    0.67362   1.00
H2       0.46873    1.11612    0.62808   1.00
H2       0.44041    1.12304    0.67050   1.00
H2       0.38867    1.09713    0.72014   1.00
H2       0.35859    1.07003    0.75208   1.00
H2       0.40378    1.08579    0.76832   1.00
H2       0.35993    1.03585    0.68402   1.00
H2       0.38518    0.99157    0.68568   1.00
H2       0.35290    1.00360    0.72328   1.00
H2       0.50094    0.89354    0.68188   1.00
H2       0.54489    0.86734    0.68309   1.00
H2       0.54470    0.91699    0.69548   1.00
H2       0.52609    0.84495    0.61625   1.00
H2       0.48618    0.87646    0.61074   1.00
H2       0.52443    0.87650    0.57622   1.00
H2       0.53417    0.99809    0.51702   1.00
H2       0.50956    1.01319    0.55935   1.00
H2       0.56055    1.02021    0.55535   1.00
H2       0.58892    0.91350    0.55916   1.00
H2       0.58000    0.94140    0.51712   1.00
H2       0.60702    0.96186    0.55585   1.00
H2       0.55765    0.98352    0.70156   1.00
H2       0.59101    1.02079    0.68881   1.00
H2       0.54241    1.02357    0.67334   1.00
H2       0.63883    0.98028    0.65544   1.00
H2       0.61299    0.93863    0.67122   1.00
H2       0.62593    0.94421    0.62157   1.00
C4       0.41198    1.18584    0.41461   1.00
C4       0.41255    1.14412    0.41415   1.00
C3       0.38540    1.20864    0.39246   1.00
C3       0.38905    1.12116    0.38889   1.00
C3       0.43981    1.20623    0.43796   1.00
C3       0.43782    1.12386    0.44034   1.00
C2       0.41398    1.27012    0.41562   1.00
C2       0.41602    1.05988    0.41438   1.00
C3       0.38649    1.24962    0.39277   1.00
C3       0.39046    1.08019    0.38924   1.00
C3       0.43996    1.24758    0.43843   1.00
C3       0.44001    1.08262    0.43906   1.00
H1       0.36438    1.19615    0.37557   1.00
H1       0.37040    1.13352    0.36933   1.00
C5       0.46720    1.18520    0.46081   1.00
C5       0.46103    1.14480    0.46742   1.00
H1       0.36672    1.26455    0.37594   1.00
H1       0.37255    1.06510    0.37055   1.00
H1       0.45937    1.26180    0.45614   1.00
H1       0.46004    1.06868    0.45622   1.00
O3       0.49791    1.20461    0.47803   1.00
O3       0.47960    1.12599    0.49789   1.00
Si1      0.53978    1.20747    0.45546   1.00
Si1      0.45534    1.11779    0.53804   1.00
C6       0.56235    1.24038    0.48804   1.00
C6       0.56170    1.16098    0.45773   1.00
C6       0.53610    1.22753    0.40815   1.00
C6       0.40577    1.13193    0.53996   1.00
C6       0.45882    1.06698    0.54355   1.00
C6       0.48156    1.13977    0.57641   1.00
C6       0.53752    1.27694    0.49988   1.00
H2       0.56483    1.22291    0.51458   1.00
C6       0.60448    1.25647    0.47994   1.00
H2       0.54814    1.14858    0.48374   1.00
C6       0.55330    1.13134    0.42404   1.00
C6       0.60672    1.15836    0.46496   1.00
H2       0.51800    1.25331    0.41318   1.00
C6       0.57464    1.24272    0.38878   1.00
C6       0.51557    1.20349    0.37491   1.00
C6       0.39560    1.17571    0.53205   1.00
C6       0.37440    1.10725    0.51766   1.00
H2       0.39858    1.12712    0.57062   1.00
H2       0.44055    1.05551    0.52014   1.00
C6       0.50017    1.04878    0.53669   1.00
C6       0.44293    1.04893    0.58234   1.00
H2       0.50455    1.11875    0.58309   1.00
C6       0.50347    1.17836    0.56637   1.00
C6       0.45969    1.14744    0.61580   1.00
H2       0.50930    1.26846    0.51204   1.00
H2       0.53217    1.29590    0.47480   1.00
H2       0.55231    1.29417    0.52230   1.00
H2       0.61989    1.26108    0.50751   1.00
H2       0.62208    1.23678    0.46239   1.00
H2       0.60400    1.28464    0.46504   1.00
H2       0.56136    1.10172    0.43278   1.00
H2       0.52249    1.13032    0.41644   1.00
H2       0.57004    1.13852    0.39792   1.00
H2       0.61514    1.17362    0.49161   1.00
H2       0.61612    1.12808    0.46873   1.00
H2       0.62304    1.17050    0.44041   1.00
H2       0.59713    1.22014    0.38867   1.00
H2       0.57003    1.25208    0.35859   1.00
H2       0.58579    1.26832    0.40378   1.00
H2       0.53585    1.18402    0.35993   1.00
H2       0.49157    1.18568    0.38518   1.00
H2       0.50360    1.22328    0.35290   1.00
H2       0.39354    1.18188    0.50094   1.00
H2       0.36734    1.18309    0.54489   1.00
H2       0.41699    1.19548    0.54470   1.00
H2       0.34495    1.11625    0.52609   1.00
H2       0.37646    1.11074    0.48618   1.00
H2       0.37650    1.07622    0.52443   1.00
H2       0.49809    1.01702    0.53417   1.00
H2       0.51319    1.05935    0.50956   1.00
H2       0.52021    1.05535    0.56055   1.00
H2       0.41350    1.05916    0.58892   1.00
H2       0.44140    1.01712    0.58000   1.00
H2       0.46186    1.05585    0.60702   1.00
H2       0.48352    1.20156    0.55765   1.00
H2       0.52079    1.18881    0.59101   1.00
H2       0.52357    1.17334    0.54241   1.00
H2       0.48028    1.15544    0.63883   1.00
H2       0.43863    1.17122    0.61299   1.00
H2       0.44421    1.12157    0.62593   1.00
C4       0.14416    0.91461    0.41802   1.00
C4       0.18588    0.91415    0.41745   1.00
C3       0.12136    0.89246    0.44460   1.00
C3       0.20884    0.88889    0.44095   1.00
C3       0.12377    0.93796    0.39019   1.00
C3       0.20614    0.94034    0.39218   1.00
C2       0.05988    0.91562    0.41602   1.00
C2       0.27012    0.91438    0.41398   1.00
C3       0.08038    0.89277    0.44351   1.00
C3       0.24981    0.88924    0.43954   1.00
C3       0.08242    0.93843    0.39004   1.00
C3       0.24738    0.93906    0.38999   1.00
H1       0.13385    0.87557    0.46562   1.00
H1       0.19648    0.86933    0.45960   1.00
C5       0.14480    0.96081    0.36280   1.00
C5       0.18520    0.96742    0.36897   1.00
H1       0.06545    0.87594    0.46328   1.00
H1       0.26490    0.87055    0.45745   1.00
H1       0.06820    0.95614    0.37063   1.00
H1       0.26132    0.95622    0.36996   1.00
O3       0.12539    0.97803    0.33209   1.00
O3       0.20401    0.99789    0.35040   1.00
Si1      0.12253    0.95546    0.29022   1.00
Si1      0.21221    1.03804    0.37466   1.00
C6       0.08962    0.98804    0.26765   1.00
C6       0.16902    0.95773    0.26830   1.00
C6       0.10247    0.90815    0.29390   1.00
C6       0.19807    1.03996    0.42423   1.00
C6       0.26302    1.04355    0.37118   1.00
C6       0.19023    1.07641    0.34844   1.00
C6       0.05306    0.99988    0.29248   1.00
H2       0.10709    1.01458    0.26517   1.00
C6       0.07353    0.97994    0.22552   1.00
H2       0.18142    0.98374    0.28186   1.00
C6       0.19866    0.92404    0.27670   1.00
C6       0.17164    0.96496    0.22328   1.00
H2       0.07669    0.91318    0.31200   1.00
C6       0.08728    0.88878    0.25536   1.00
C6       0.12651    0.87491    0.31443   1.00
C6       0.15429    1.03205    0.43440   1.00
C6       0.22275    1.01766    0.45560   1.00
H2       0.20288    1.07062    0.43142   1.00
H2       0.27449    1.02014    0.38945   1.00
C6       0.28122    1.03669    0.32983   1.00
C6       0.28107    1.08234    0.38707   1.00
H2       0.21125    1.08309    0.32545   1.00
C6       0.15164    1.06637    0.32653   1.00
C6       0.18256    1.11580    0.37031   1.00
H2       0.06154    1.01204    0.32070   1.00
H2       0.03410    0.97480    0.29783   1.00
H2       0.03583    1.02230    0.27769   1.00
H2       0.06892    1.00751    0.21011   1.00
H2       0.09322    0.96239    0.20792   1.00
H2       0.04536    0.96504    0.22600   1.00
H2       0.22828    0.93278    0.26864   1.00
H2       0.19968    0.91644    0.30751   1.00
H2       0.19148    0.89792    0.25996   1.00
H2       0.15638    0.99161    0.21486   1.00
H2       0.20192    0.96873    0.21388   1.00
H2       0.15950    0.94041    0.20696   1.00
H2       0.10986    0.88867    0.23287   1.00
H2       0.07792    0.85859    0.25997   1.00
H2       0.06168    0.90378    0.24421   1.00
H2       0.14598    0.85993    0.29415   1.00
H2       0.14432    0.88518    0.33843   1.00
H2       0.10672    0.85290    0.32640   1.00
H2       0.14812    1.00094    0.43646   1.00
H2       0.14691    1.04489    0.46266   1.00
H2       0.13452    1.04470    0.41301   1.00
H2       0.21375    1.02609    0.48505   1.00
H2       0.21926    0.98618    0.45354   1.00
H2       0.25378    1.02443    0.45350   1.00
H2       0.31298    1.03417    0.33191   1.00
H2       0.27065    1.00956    0.31681   1.00
H2       0.27465    1.06055    0.30979   1.00
H2       0.27084    1.08892    0.41650   1.00
H2       0.31288    1.08000    0.38860   1.00
H2       0.27415    1.10702    0.36814   1.00
H2       0.12844    1.05765    0.34648   1.00
H2       0.14119    1.09101    0.30921   1.00
H2       0.15666    1.04241    0.30643   1.00
H2       0.17456    1.13883    0.34972   1.00
H2       0.15878    1.11299    0.39137   1.00
H2       0.20843    1.12593    0.38579   1.00
C4       0.68584    0.91461    0.41198   1.00
C4       0.64412    0.91415    0.41255   1.00
C3       0.70864    0.89246    0.38540   1.00
C3       0.62116    0.88889    0.38905   1.00
C3       0.70623    0.93796    0.43981   1.00
C3       0.62386    0.94034    0.43782   1.00
C2       0.77012    0.91562    0.41398   1.00
C2       0.55988    0.91438    0.41602   1.00
C3       0.74962    0.89277    0.38649   1.00
C3       0.58019    0.88924    0.39046   1.00
C3       0.74758    0.93843    0.43996   1.00
C3       0.58262    0.93906    0.44001   1.00
H1       0.69615    0.87557    0.36438   1.00
H1       0.63352    0.86933    0.37040   1.00
C5       0.68520    0.96081    0.46720   1.00
C5       0.64480    0.96742    0.46103   1.00
H1       0.76455    0.87594    0.36672   1.00
H1       0.56510    0.87055    0.37255   1.00
H1       0.76180    0.95614    0.45937   1.00
H1       0.56868    0.95622    0.46004   1.00
O3       0.70461    0.97803    0.49791   1.00
O3       0.62599    0.99789    0.47960   1.00
Si1      0.70747    0.95546    0.53978   1.00
Si1      0.61779    1.03804    0.45534   1.00
C6       0.74038    0.98804    0.56235   1.00
C6       0.66098    0.95773    0.56170   1.00
C6       0.72753    0.90815    0.53610   1.00
C6       0.63193    1.03996    0.40577   1.00
C6       0.56698    1.04355    0.45882   1.00
C6       0.63977    1.07641    0.48156   1.00
C6       0.77694    0.99988    0.53752   1.00
H2       0.72291    1.01458    0.56483   1.00
C6       0.75647    0.97994    0.60448   1.00
H2       0.64858    0.98374    0.54814   1.00
C6       0.63134    0.92404    0.55330   1.00
C6       0.65836    0.96496    0.60672   1.00
H2       0.75331    0.91318    0.51800   1.00
C6       0.74272    0.88878    0.57464   1.00
C6       0.70349    0.87491    0.51557   1.00
C6       0.67571    1.03205    0.39560   1.00
C6       0.60725    1.01766    0.37440   1.00
H2       0.62712    1.07062    0.39858   1.00
H2       0.55551    1.02014    0.44055   1.00
C6       0.54878    1.03669    0.50017   1.00
C6       0.54893    1.08234    0.44293   1.00
H2       0.61875    1.08309    0.50455   1.00
C6       0.67836    1.06637    0.50347   1.00
C6       0.64744    1.11580    0.45969   1.00
H2       0.76846    1.01204    0.50930   1.00
H2       0.79590    0.97480    0.53217   1.00
H2       0.79417    1.02230    0.55231   1.00
H2       0.76108    1.00751    0.61989   1.00
H2       0.73678    0.96239    0.62208   1.00
H2       0.78464    0.96504    0.60400   1.00
H2       0.60172    0.93278    0.56136   1.00
H2       0.63032    0.91644    0.52249   1.00
H2       0.63852    0.89792    0.57004   1.00
H2       0.67362    0.99161    0.61514   1.00
H2       0.62808    0.96873    0.61612   1.00
H2       0.67050    0.94041    0.62304   1.00
H2       0.72014    0.88867    0.59713   1.00
H2       0.75208    0.85859    0.57003   1.00
H2       0.76832    0.90378    0.58579   1.00
H2       0.68402    0.85993    0.53585   1.00
H2       0.68568    0.88518    0.49157   1.00
H2       0.72328    0.85290    0.50360   1.00
H2       0.68188    1.00094    0.39354   1.00
H2       0.68309    1.04489    0.36734   1.00
H2       0.69548    1.04470    0.41699   1.00
H2       0.61625    1.02609    0.34495   1.00
H2       0.61074    0.98618    0.37646   1.00
H2       0.57622    1.02443    0.37650   1.00
H2       0.51702    1.03417    0.49809   1.00
H2       0.55935    1.00956    0.51319   1.00
H2       0.55535    1.06055    0.52021   1.00
H2       0.55916    1.08892    0.41350   1.00
H2       0.51712    1.08000    0.44140   1.00
H2       0.55585    1.10702    0.46186   1.00
H2       0.70156    1.05765    0.48352   1.00
H2       0.68881    1.09101    0.52079   1.00
H2       0.67334    1.04241    0.52357   1.00
H2       0.65544    1.13883    0.48028   1.00
H2       0.67122    1.11299    0.43863   1.00
H2       0.62157    1.12593    0.44421   1.00
C4       0.41802    0.64416    0.41461   1.00
C4       0.41745    0.68588    0.41415   1.00
C3       0.44460    0.62136    0.39246   1.00
C3       0.44095    0.70884    0.38889   1.00
C3       0.39019    0.62377    0.43796   1.00
C3       0.39218    0.70614    0.44034   1.00
C2       0.41602    0.55988    0.41562   1.00
C2       0.41398    0.77012    0.41438   1.00
C3       0.44351    0.58038    0.39277   1.00
C3       0.43954    0.74981    0.38924   1.00
C3       0.39004    0.58242    0.43843   1.00
C3       0.38999    0.74738    0.43906   1.00
H1       0.46562    0.63385    0.37557   1.00
H1       0.45960    0.69648    0.36933   1.00
C5       0.36280    0.64480    0.46081   1.00
C5       0.36897    0.68520    0.46742   1.00
H1       0.46328    0.56545    0.37594   1.00
H1       0.45745    0.76490    0.37055   1.00
H1       0.37063    0.56820    0.45614   1.00
H1       0.36996    0.76132    0.45622   1.00
O3       0.33209    0.62539    0.47803   1.00
O3       0.35040    0.70401    0.49789   1.00
Si1      0.29022    0.62253    0.45546   1.00
Si1      0.37466    0.71221    0.53804   1.00
C6       0.26765    0.58962    0.48804   1.00
C6       0.26830    0.66902    0.45773   1.00
C6       0.29390    0.60247    0.40815   1.00
C6       0.42423    0.69807    0.53996   1.00
C6       0.37118    0.76302    0.54355   1.00
C6       0.34844    0.69023    0.57641   1.00
C6       0.29248    0.55306    0.49988   1.00
H2       0.26517    0.60709    0.51458   1.00
C6       0.22552    0.57353    0.47994   1.00
H2       0.28186    0.68142    0.48374   1.00
C6       0.27670    0.69866    0.42404   1.00
C6       0.22328    0.67164    0.46496   1.00
H2       0.31200    0.57669    0.41318   1.00
C6       0.25536    0.58728    0.38878   1.00
C6       0.31443    0.62651    0.37491   1.00
C6       0.43440    0.65429    0.53205   1.00
C6       0.45560    0.72275    0.51766   1.00
H2       0.43142    0.70288    0.57062   1.00
H2       0.38945    0.77449    0.52014   1.00
C6       0.32983    0.78122    0.53669   1.00
C6       0.38707    0.78107    0.58234   1.00
H2       0.32545    0.71125    0.58309   1.00
C6       0.32653    0.65164    0.56637   1.00
C6       0.37031    0.68256    0.61580   1.00
H2       0.32070    0.56154    0.51204   1.00
H2       0.29783    0.53410    0.47480   1.00
H2       0.27769    0.53583    0.52230   1.00
H2       0.21011    0.56892    0.50751   1.00
H2       0.20792    0.59322    0.46239   1.00
H2       0.22600    0.54536    0.46504   1.00
H2       0.26864    0.72828    0.43278   1.00
H2       0.30751    0.69968    0.41644   1.00
H2       0.25996    0.69148    0.39792   1.00
H2       0.21486    0.65638    0.49161   1.00
H2       0.21388    0.70192    0.46873   1.00
H2       0.20696    0.65950    0.44041   1.00
H2       0.23287    0.60986    0.38867   1.00
H2       0.25997    0.57792    0.35859   1.00
H2       0.24421    0.56168    0.40378   1.00
H2       0.29415    0.64598    0.35993   1.00
H2       0.33843    0.64432    0.38518   1.00
H2       0.32640    0.60672    0.35290   1.00
H2       0.43646    0.64812    0.50094   1.00
H2       0.46266    0.64691    0.54489   1.00
H2       0.41301    0.63452    0.54470   1.00
H2       0.48505    0.71375    0.52609   1.00
H2       0.45354    0.71926    0.48618   1.00
H2       0.45350    0.75378    0.52443   1.00
H2       0.33191    0.81298    0.53417   1.00
H2       0.31681    0.77065    0.50956   1.00
H2       0.30979    0.77465    0.56055   1.00
H2       0.41650    0.77084    0.58892   1.00
H2       0.38860    0.81288    0.58000   1.00
H2       0.36814    0.77415    0.60702   1.00
H2       0.34648    0.62844    0.55765   1.00
H2       0.30921    0.64119    0.59101   1.00
H2       0.30643    0.65666    0.54241   1.00
H2       0.34972    0.67456    0.63883   1.00
H2       0.39137    0.65878    0.61299   1.00
H2       0.38579    0.70843    0.62593   1.00
C4       0.41461    0.91802    0.14416   1.00
C4       0.41415    0.91745    0.18588   1.00
C3       0.39246    0.94460    0.12136   1.00
C3       0.38889    0.94095    0.20884   1.00
C3       0.43796    0.89019    0.12377   1.00
C3       0.44034    0.89218    0.20614   1.00
C2       0.41562    0.91602    0.05988   1.00
C2       0.41438    0.91398    0.27012   1.00
C3       0.39277    0.94351    0.08038   1.00
C3       0.38924    0.93954    0.24981   1.00
C3       0.43843    0.89004    0.08242   1.00
C3       0.43906    0.88999    0.24738   1.00
H1       0.37557    0.96562    0.13385   1.00
H1       0.36933    0.95960    0.19648   1.00
C5       0.46081    0.86280    0.14480   1.00
C5       0.46742    0.86897    0.18520   1.00
H1       0.37594    0.96328    0.06545   1.00
H1       0.37055    0.95745    0.26490   1.00
H1       0.45614    0.87063    0.06820   1.00
H1       0.45622    0.86996    0.26132   1.00
O3       0.47803    0.83209    0.12539   1.00
O3       0.49789    0.85040    0.20401   1.00
Si1      0.45546    0.79022    0.12253   1.00
Si1      0.53804    0.87466    0.21221   1.00
C6       0.48804    0.76765    0.08962   1.00
C6       0.45773    0.76830    0.16902   1.00
C6       0.40815    0.79390    0.10247   1.00
C6       0.53996    0.92423    0.19807   1.00
C6       0.54355    0.87118    0.26302   1.00
C6       0.57641    0.84844    0.19023   1.00
C6       0.49988    0.79248    0.05306   1.00
H2       0.51458    0.76517    0.10709   1.00
C6       0.47994    0.72552    0.07353   1.00
H2       0.48374    0.78186    0.18142   1.00
C6       0.42404    0.77670    0.19866   1.00
C6       0.46496    0.72328    0.17164   1.00
H2       0.41318    0.81200    0.07669   1.00
C6       0.38878    0.75536    0.08728   1.00
C6       0.37491    0.81443    0.12651   1.00
C6       0.53205    0.93440    0.15429   1.00
C6       0.51766    0.95560    0.22275   1.00
H2       0.57062    0.93142    0.20288   1.00
H2       0.52014    0.88945    0.27449   1.00
C6       0.53669    0.82983    0.28122   1.00
C6       0.58234    0.88707    0.28107   1.00
H2       0.58309    0.82545    0.21125   1.00
C6       0.56637    0.82653    0.15164   1.00
C6       0.61580    0.87031    0.18256   1.00
H2       0.51204    0.82070    0.06154   1.00
H2       0.47480    0.79783    0.03410   1.00
H2       0.52230    0.77769    0.03583   1.00
H2       0.50751    0.71011    0.06892   1.00
H2       0.46239    0.70792    0.09322   1.00
H2       0.46504    0.72600    0.04536   1.00
H2       0.43278    0.76864    0.22828   1.00
H2       0.41644    0.80751    0.19968   1.00
H2       0.39792    0.75996    0.19148   1.00
H2       0.49161    0.71486    0.15638   1.00
H2       0.46873    0.71388    0.20192   1.00
H2       0.44041    0.70696    0.15950   1.00
H2       0.38867    0.73287    0.10986   1.00
H2       0.35859    0.75997    0.07792   1.00
H2       0.40378    0.74421    0.06168   1.00
H2       0.35993    0.79415    0.14598   1.00
H2       0.38518    0.83843    0.14432   1.00
H2       0.35290    0.82640    0.10672   1.00
H2       0.50094    0.93646    0.14812   1.00
H2       0.54489    0.96266    0.14691   1.00
H2       0.54470    0.91301    0.13452   1.00
H2       0.52609    0.98505    0.21375   1.00
H2       0.48618    0.95354    0.21926   1.00
H2       0.52443    0.95350    0.25378   1.00
H2       0.53417    0.83191    0.31298   1.00
H2       0.50956    0.81681    0.27065   1.00
H2       0.56055    0.80979    0.27465   1.00
H2       0.58892    0.91650    0.27084   1.00
H2       0.58000    0.88860    0.31288   1.00
H2       0.60702    0.86814    0.27415   1.00
H2       0.55765    0.84648    0.12844   1.00
H2       0.59101    0.80921    0.14119   1.00
H2       0.54241    0.80643    0.15666   1.00
H2       0.63883    0.84972    0.17456   1.00
H2       0.61299    0.89137    0.15878   1.00
H2       0.62593    0.88579    0.20843   1.00
C4       0.91461    0.41198    0.68584   1.00
C4       0.91415    0.41255    0.64412   1.00
C3       0.89246    0.38540    0.70864   1.00
C3       0.88889    0.38905    0.62116   1.00
C3       0.93796    0.43981    0.70623   1.00
C3       0.94034    0.43782    0.62386   1.00
C2       0.91562    0.41398    0.77012   1.00
C2       0.91438    0.41602    0.55988   1.00
C3       0.89277    0.38649    0.74962   1.00
C3       0.88924    0.39046    0.58019   1.00
C3       0.93843    0.43996    0.74758   1.00
C3       0.93906    0.44001    0.58262   1.00
H1       0.87557    0.36438    0.69615   1.00
H1       0.86933    0.37040    0.63352   1.00
C5       0.96081    0.46720    0.68520   1.00
C5       0.96742    0.46103    0.64480   1.00
H1       0.87594    0.36672    0.76455   1.00
H1       0.87055    0.37255    0.56510   1.00
H1       0.95614    0.45937    0.76180   1.00
H1       0.95622    0.46004    0.56868   1.00
O3       0.97803    0.49791    0.70461   1.00
O3       0.99789    0.47960    0.62599   1.00
Si1      0.95546    0.53978    0.70747   1.00
Si1      1.03804    0.45534    0.61779   1.00
C6       0.98804    0.56235    0.74038   1.00
C6       0.95773    0.56170    0.66098   1.00
C6       0.90815    0.53610    0.72753   1.00
C6       1.03996    0.40577    0.63193   1.00
C6       1.04355    0.45882    0.56698   1.00
C6       1.07641    0.48156    0.63977   1.00
C6       0.99988    0.53752    0.77694   1.00
H2       1.01458    0.56483    0.72291   1.00
C6       0.97994    0.60448    0.75647   1.00
H2       0.98374    0.54814    0.64858   1.00
C6       0.92404    0.55330    0.63134   1.00
C6       0.96496    0.60672    0.65836   1.00
H2       0.91318    0.51800    0.75331   1.00
C6       0.88878    0.57464    0.74272   1.00
C6       0.87491    0.51557    0.70349   1.00
C6       1.03205    0.39560    0.67571   1.00
C6       1.01766    0.37440    0.60725   1.00
H2       1.07062    0.39858    0.62712   1.00
H2       1.02014    0.44055    0.55551   1.00
C6       1.03669    0.50017    0.54878   1.00
C6       1.08234    0.44293    0.54893   1.00
H2       1.08309    0.50455    0.61875   1.00
C6       1.06637    0.50347    0.67836   1.00
C6       1.11580    0.45969    0.64744   1.00
H2       1.01204    0.50930    0.76846   1.00
H2       0.97480    0.53217    0.79590   1.00
H2       1.02230    0.55231    0.79417   1.00
H2       1.00751    0.61989    0.76108   1.00
H2       0.96239    0.62208    0.73678   1.00
H2       0.96504    0.60400    0.78464   1.00
H2       0.93278    0.56136    0.60172   1.00
H2       0.91644    0.52249    0.63032   1.00
H2       0.89792    0.57004    0.63852   1.00
H2       0.99161    0.61514    0.67362   1.00
H2       0.96873    0.61612    0.62808   1.00
H2       0.94041    0.62304    0.67050   1.00
H2       0.88867    0.59713    0.72014   1.00
H2       0.85859    0.57003    0.75208   1.00
H2       0.90378    0.58579    0.76832   1.00
H2       0.85993    0.53585    0.68402   1.00
H2       0.88518    0.49157    0.68568   1.00
H2       0.85290    0.50360    0.72328   1.00
H2       1.00094    0.39354    0.68188   1.00
H2       1.04489    0.36734    0.68309   1.00
H2       1.04470    0.41699    0.69548   1.00
H2       1.02609    0.34495    0.61625   1.00
H2       0.98618    0.37646    0.61074   1.00
H2       1.02443    0.37650    0.57622   1.00
H2       1.03417    0.49809    0.51702   1.00
H2       1.00956    0.51319    0.55935   1.00
H2       1.06055    0.52021    0.55535   1.00
H2       1.08892    0.41350    0.55916   1.00
H2       1.08000    0.44140    0.51712   1.00
H2       1.10702    0.46186    0.55585   1.00
H2       1.05765    0.48352    0.70156   1.00
H2       1.09101    0.52079    0.68881   1.00
H2       1.04241    0.52357    0.67334   1.00
H2       1.13883    0.48028    0.65544   1.00
H2       1.11299    0.43863    0.67122   1.00
H2       1.12593    0.44421    0.62157   1.00
C4       0.91198    0.68584    0.41461   1.00
C4       0.91255    0.64412    0.41415   1.00
C3       0.88540    0.70864    0.39246   1.00
C3       0.88905    0.62116    0.38889   1.00
C3       0.93981    0.70623    0.43796   1.00
C3       0.93782    0.62386    0.44034   1.00
C2       0.91398    0.77012    0.41562   1.00
C2       0.91602    0.55988    0.41438   1.00
C3       0.88649    0.74962    0.39277   1.00
C3       0.89046    0.58019    0.38924   1.00
C3       0.93996    0.74758    0.43843   1.00
C3       0.94001    0.58262    0.43906   1.00
H1       0.86438    0.69615    0.37557   1.00
H1       0.87040    0.63352    0.36933   1.00
C5       0.96720    0.68520    0.46081   1.00
C5       0.96103    0.64480    0.46742   1.00
H1       0.86672    0.76455    0.37594   1.00
H1       0.87255    0.56510    0.37055   1.00
H1       0.95937    0.76180    0.45614   1.00
H1       0.96004    0.56868    0.45622   1.00
O3       0.99791    0.70461    0.47803   1.00
O3       0.97960    0.62599    0.49789   1.00
Si1      1.03978    0.70747    0.45546   1.00
Si1      0.95534    0.61779    0.53804   1.00
C6       1.06235    0.74038    0.48804   1.00
C6       1.06170    0.66098    0.45773   1.00
C6       1.03610    0.72753    0.40815   1.00
C6       0.90577    0.63193    0.53996   1.00
C6       0.95882    0.56698    0.54355   1.00
C6       0.98156    0.63977    0.57641   1.00
C6       1.03752    0.77694    0.49988   1.00
H2       1.06483    0.72291    0.51458   1.00
C6       1.10448    0.75647    0.47994   1.00
H2       1.04814    0.64858    0.48374   1.00
C6       1.05330    0.63134    0.42404   1.00
C6       1.10672    0.65836    0.46496   1.00
H2       1.01800    0.75331    0.41318   1.00
C6       1.07464    0.74272    0.38878   1.00
C6       1.01557    0.70349    0.37491   1.00
C6       0.89560    0.67571    0.53205   1.00
C6       0.87440    0.60725    0.51766   1.00
H2       0.89858    0.62712    0.57062   1.00
H2       0.94055    0.55551    0.52014   1.00
C6       1.00017    0.54878    0.53669   1.00
C6       0.94293    0.54893    0.58234   1.00
H2       1.00455    0.61875    0.58309   1.00
C6       1.00347    0.67836    0.56637   1.00
C6       0.95969    0.64744    0.61580   1.00
H2       1.00930    0.76846    0.51204   1.00
H2       1.03217    0.79590    0.47480   1.00
H2       1.05231    0.79417    0.52230   1.00
H2       1.11989    0.76108    0.50751   1.00
H2       1.12208    0.73678    0.46239   1.00
H2       1.10400    0.78464    0.46504   1.00
H2       1.06136    0.60172    0.43278   1.00
H2       1.02249    0.63032    0.41644   1.00
H2       1.07004    0.63852    0.39792   1.00
H2       1.11514    0.67362    0.49161   1.00
H2       1.11612    0.62808    0.46873   1.00
H2       1.12304    0.67050    0.44041   1.00
H2       1.09713    0.72014    0.38867   1.00
H2       1.07003    0.75208    0.35859   1.00
H2       1.08579    0.76832    0.40378   1.00
H2       1.03585    0.68402    0.35993   1.00
H2       0.99157    0.68568    0.38518   1.00
H2       1.00360    0.72328    0.35290   1.00
H2       0.89354    0.68188    0.50094   1.00
H2       0.86734    0.68309    0.54489   1.00
H2       0.91699    0.69548    0.54470   1.00
H2       0.84495    0.61625    0.52609   1.00
H2       0.87646    0.61074    0.48618   1.00
H2       0.87650    0.57622    0.52443   1.00
H2       0.99809    0.51702    0.53417   1.00
H2       1.01319    0.55935    0.50956   1.00
H2       1.02021    0.55535    0.56055   1.00
H2       0.91350    0.55916    0.58892   1.00
H2       0.94140    0.51712    0.58000   1.00
H2       0.96186    0.55585    0.60702   1.00
H2       0.98352    0.70156    0.55765   1.00
H2       1.02079    0.68881    0.59101   1.00
H2       1.02357    0.67334    0.54241   1.00
H2       0.98028    0.65544    0.63883   1.00
H2       0.93863    0.67122    0.61299   1.00
H2       0.94421    0.62157    0.62593   1.00
C4       0.64416    0.41461    0.41802   1.00
C4       0.68588    0.41415    0.41745   1.00
C3       0.62136    0.39246    0.44460   1.00
C3       0.70884    0.38889    0.44095   1.00
C3       0.62377    0.43796    0.39019   1.00
C3       0.70614    0.44034    0.39218   1.00
C2       0.55988    0.41562    0.41602   1.00
C2       0.77012    0.41438    0.41398   1.00
C3       0.58038    0.39277    0.44351   1.00
C3       0.74981    0.38924    0.43954   1.00
C3       0.58242    0.43843    0.39004   1.00
C3       0.74738    0.43906    0.38999   1.00
H1       0.63385    0.37557    0.46562   1.00
H1       0.69648    0.36933    0.45960   1.00
C5       0.64480    0.46081    0.36280   1.00
C5       0.68520    0.46742    0.36897   1.00
H1       0.56545    0.37594    0.46328   1.00
H1       0.76490    0.37055    0.45745   1.00
H1       0.56820    0.45614    0.37063   1.00
H1       0.76132    0.45622    0.36996   1.00
O3       0.62539    0.47803    0.33209   1.00
O3       0.70401    0.49789    0.35040   1.00
Si1      0.62253    0.45546    0.29022   1.00
Si1      0.71221    0.53804    0.37466   1.00
C6       0.58962    0.48804    0.26765   1.00
C6       0.66902    0.45773    0.26830   1.00
C6       0.60247    0.40815    0.29390   1.00
C6       0.69807    0.53996    0.42423   1.00
C6       0.76302    0.54355    0.37118   1.00
C6       0.69023    0.57641    0.34844   1.00
C6       0.55306    0.49988    0.29248   1.00
H2       0.60709    0.51458    0.26517   1.00
C6       0.57353    0.47994    0.22552   1.00
H2       0.68142    0.48374    0.28186   1.00
C6       0.69866    0.42404    0.27670   1.00
C6       0.67164    0.46496    0.22328   1.00
H2       0.57669    0.41318    0.31200   1.00
C6       0.58728    0.38878    0.25536   1.00
C6       0.62651    0.37491    0.31443   1.00
C6       0.65429    0.53205    0.43440   1.00
C6       0.72275    0.51766    0.45560   1.00
H2       0.70288    0.57062    0.43142   1.00
H2       0.77449    0.52014    0.38945   1.00
C6       0.78122    0.53669    0.32983   1.00
C6       0.78107    0.58234    0.38707   1.00
H2       0.71125    0.58309    0.32545   1.00
C6       0.65164    0.56637    0.32653   1.00
C6       0.68256    0.61580    0.37031   1.00
H2       0.56154    0.51204    0.32070   1.00
H2       0.53410    0.47480    0.29783   1.00
H2       0.53583    0.52230    0.27769   1.00
H2       0.56892    0.50751    0.21011   1.00
H2       0.59322    0.46239    0.20792   1.00
H2       0.54536    0.46504    0.22600   1.00
H2       0.72828    0.43278    0.26864   1.00
H2       0.69968    0.41644    0.30751   1.00
H2       0.69148    0.39792    0.25996   1.00
H2       0.65638    0.49161    0.21486   1.00
H2       0.70192    0.46873    0.21388   1.00
H2       0.65950    0.44041    0.20696   1.00
H2       0.60986    0.38867    0.23287   1.00
H2       0.57792    0.35859    0.25997   1.00
H2       0.56168    0.40378    0.24421   1.00
H2       0.64598    0.35993    0.29415   1.00
H2       0.64432    0.38518    0.33843   1.00
H2       0.60672    0.35290    0.32640   1.00
H2       0.64812    0.50094    0.43646   1.00
H2       0.64691    0.54489    0.46266   1.00
H2       0.63452    0.54470    0.41301   1.00
H2       0.71375    0.52609    0.48505   1.00
H2       0.71926    0.48618    0.45354   1.00
H2       0.75378    0.52443    0.45350   1.00
H2       0.81298    0.53417    0.33191   1.00
H2       0.77065    0.50956    0.31681   1.00
H2       0.77465    0.56055    0.30979   1.00
H2       0.77084    0.58892    0.41650   1.00
H2       0.81288    0.58000    0.38860   1.00
H2       0.77415    0.60702    0.36814   1.00
H2       0.62844    0.55765    0.34648   1.00
H2       0.64119    0.59101    0.30921   1.00
H2       0.65666    0.54241    0.30643   1.00
H2       0.67456    0.63883    0.34972   1.00
H2       0.65878    0.61299    0.39137   1.00
H2       0.70843    0.62593    0.38579   1.00
C4       1.18584    0.41461    0.41198   1.00
C4       1.14412    0.41415    0.41255   1.00
C3       1.20864    0.39246    0.38540   1.00
C3       1.12116    0.38889    0.38905   1.00
C3       1.20623    0.43796    0.43981   1.00
C3       1.12386    0.44034    0.43782   1.00
C2       1.27012    0.41562    0.41398   1.00
C2       1.05988    0.41438    0.41602   1.00
C3       1.24962    0.39277    0.38649   1.00
C3       1.08019    0.38924    0.39046   1.00
C3       1.24758    0.43843    0.43996   1.00
C3       1.08262    0.43906    0.44001   1.00
H1       1.19615    0.37557    0.36438   1.00
H1       1.13352    0.36933    0.37040   1.00
C5       1.18520    0.46081    0.46720   1.00
C5       1.14480    0.46742    0.46103   1.00
H1       1.26455    0.37594    0.36672   1.00
H1       1.06510    0.37055    0.37255   1.00
H1       1.26180    0.45614    0.45937   1.00
H1       1.06868    0.45622    0.46004   1.00
O3       1.20461    0.47803    0.49791   1.00
O3       1.12599    0.49789    0.47960   1.00
Si1      1.20747    0.45546    0.53978   1.00
Si1      1.11779    0.53804    0.45534   1.00
C6       1.24038    0.48804    0.56235   1.00
C6       1.16098    0.45773    0.56170   1.00
C6       1.22753    0.40815    0.53610   1.00
C6       1.13193    0.53996    0.40577   1.00
C6       1.06698    0.54355    0.45882   1.00
C6       1.13977    0.57641    0.48156   1.00
C6       1.27694    0.49988    0.53752   1.00
H2       1.22291    0.51458    0.56483   1.00
C6       1.25647    0.47994    0.60448   1.00
H2       1.14858    0.48374    0.54814   1.00
C6       1.13134    0.42404    0.55330   1.00
C6       1.15836    0.46496    0.60672   1.00
H2       1.25331    0.41318    0.51800   1.00
C6       1.24272    0.38878    0.57464   1.00
C6       1.20349    0.37491    0.51557   1.00
C6       1.17571    0.53205    0.39560   1.00
C6       1.10725    0.51766    0.37440   1.00
H2       1.12712    0.57062    0.39858   1.00
H2       1.05551    0.52014    0.44055   1.00
C6       1.04878    0.53669    0.50017   1.00
C6       1.04893    0.58234    0.44293   1.00
H2       1.11875    0.58309    0.50455   1.00
C6       1.17836    0.56637    0.50347   1.00
C6       1.14744    0.61580    0.45969   1.00
H2       1.26846    0.51204    0.50930   1.00
H2       1.29590    0.47480    0.53217   1.00
H2       1.29417    0.52230    0.55231   1.00
H2       1.26108    0.50751    0.61989   1.00
H2       1.23678    0.46239    0.62208   1.00
H2       1.28464    0.46504    0.60400   1.00
H2       1.10172    0.43278    0.56136   1.00
H2       1.13032    0.41644    0.52249   1.00
H2       1.13852    0.39792    0.57004   1.00
H2       1.17362    0.49161    0.61514   1.00
H2       1.12808    0.46873    0.61612   1.00
H2       1.17050    0.44041    0.62304   1.00
H2       1.22014    0.38867    0.59713   1.00
H2       1.25208    0.35859    0.57003   1.00
H2       1.26832    0.40378    0.58579   1.00
H2       1.18402    0.35993    0.53585   1.00
H2       1.18568    0.38518    0.49157   1.00
H2       1.22328    0.35290    0.50360   1.00
H2       1.18188    0.50094    0.39354   1.00
H2       1.18309    0.54489    0.36734   1.00
H2       1.19548    0.54470    0.41699   1.00
H2       1.11625    0.52609    0.34495   1.00
H2       1.11074    0.48618    0.37646   1.00
H2       1.07622    0.52443    0.37650   1.00
H2       1.01702    0.53417    0.49809   1.00
H2       1.05935    0.50956    0.51319   1.00
H2       1.05535    0.56055    0.52021   1.00
H2       1.05916    0.58892    0.41350   1.00
H2       1.01712    0.58000    0.44140   1.00
H2       1.05585    0.60702    0.46186   1.00
H2       1.20156    0.55765    0.48352   1.00
H2       1.18881    0.59101    0.52079   1.00
H2       1.17334    0.54241    0.52357   1.00
H2       1.15544    0.63883    0.48028   1.00
H2       1.17122    0.61299    0.43863   1.00
H2       1.12157    0.62593    0.44421   1.00
C4       0.91802    0.14416    0.41461   1.00
C4       0.91745    0.18588    0.41415   1.00
C3       0.94460    0.12136    0.39246   1.00
C3       0.94095    0.20884    0.38889   1.00
C3       0.89019    0.12377    0.43796   1.00
C3       0.89218    0.20614    0.44034   1.00
C2       0.91602    0.05988    0.41562   1.00
C2       0.91398    0.27012    0.41438   1.00
C3       0.94351    0.08038    0.39277   1.00
C3       0.93954    0.24981    0.38924   1.00
C3       0.89004    0.08242    0.43843   1.00
C3       0.88999    0.24738    0.43906   1.00
H1       0.96562    0.13385    0.37557   1.00
H1       0.95960    0.19648    0.36933   1.00
C5       0.86280    0.14480    0.46081   1.00
C5       0.86897    0.18520    0.46742   1.00
H1       0.96328    0.06545    0.37594   1.00
H1       0.95745    0.26490    0.37055   1.00
H1       0.87063    0.06820    0.45614   1.00
H1       0.86996    0.26132    0.45622   1.00
O3       0.83209    0.12539    0.47803   1.00
O3       0.85040    0.20401    0.49789   1.00
Si1      0.79022    0.12253    0.45546   1.00
Si1      0.87466    0.21221    0.53804   1.00
C6       0.76765    0.08962    0.48804   1.00
C6       0.76830    0.16902    0.45773   1.00
C6       0.79390    0.10247    0.40815   1.00
C6       0.92423    0.19807    0.53996   1.00
C6       0.87118    0.26302    0.54355   1.00
C6       0.84844    0.19023    0.57641   1.00
C6       0.79248    0.05306    0.49988   1.00
H2       0.76517    0.10709    0.51458   1.00
C6       0.72552    0.07353    0.47994   1.00
H2       0.78186    0.18142    0.48374   1.00
C6       0.77670    0.19866    0.42404   1.00
C6       0.72328    0.17164    0.46496   1.00
H2       0.81200    0.07669    0.41318   1.00
C6       0.75536    0.08728    0.38878   1.00
C6       0.81443    0.12651    0.37491   1.00
C6       0.93440    0.15429    0.53205   1.00
C6       0.95560    0.22275    0.51766   1.00
H2       0.93142    0.20288    0.57062   1.00
H2       0.88945    0.27449    0.52014   1.00
C6       0.82983    0.28122    0.53669   1.00
C6       0.88707    0.28107    0.58234   1.00
H2       0.82545    0.21125    0.58309   1.00
C6       0.82653    0.15164    0.56637   1.00
C6       0.87031    0.18256    0.61580   1.00
H2       0.82070    0.06154    0.51204   1.00
H2       0.79783    0.03410    0.47480   1.00
H2       0.77769    0.03583    0.52230   1.00
H2       0.71011    0.06892    0.50751   1.00
H2       0.70792    0.09322    0.46239   1.00
H2       0.72600    0.04536    0.46504   1.00
H2       0.76864    0.22828    0.43278   1.00
H2       0.80751    0.19968    0.41644   1.00
H2       0.75996    0.19148    0.39792   1.00
H2       0.71486    0.15638    0.49161   1.00
H2       0.71388    0.20192    0.46873   1.00
H2       0.70696    0.15950    0.44041   1.00
H2       0.73287    0.10986    0.38867   1.00
H2       0.75997    0.07792    0.35859   1.00
H2       0.74421    0.06168    0.40378   1.00
H2       0.79415    0.14598    0.35993   1.00
H2       0.83843    0.14432    0.38518   1.00
H2       0.82640    0.10672    0.35290   1.00
H2       0.93646    0.14812    0.50094   1.00
H2       0.96266    0.14691    0.54489   1.00
H2       0.91301    0.13452    0.54470   1.00
H2       0.98505    0.21375    0.52609   1.00
H2       0.95354    0.21926    0.48618   1.00
H2       0.95350    0.25378    0.52443   1.00
H2       0.83191    0.31298    0.53417   1.00
H2       0.81681    0.27065    0.50956   1.00
H2       0.80979    0.27465    0.56055   1.00
H2       0.91650    0.27084    0.58892   1.00
H2       0.88860    0.31288    0.58000   1.00
H2       0.86814    0.27415    0.60702   1.00
H2       0.84648    0.12844    0.55765   1.00
H2       0.80921    0.14119    0.59101   1.00
H2       0.80643    0.15666    0.54241   1.00
H2       0.84972    0.17456    0.63883   1.00
H2       0.89137    0.15878    0.61299   1.00
H2       0.88579    0.20843    0.62593   1.00
C4       0.91461    0.41802    0.14416   1.00
C4       0.91415    0.41745    0.18588   1.00
C3       0.89246    0.44460    0.12136   1.00
C3       0.88889    0.44095    0.20884   1.00
C3       0.93796    0.39019    0.12377   1.00
C3       0.94034    0.39218    0.20614   1.00
C2       0.91562    0.41602    0.05988   1.00
C2       0.91438    0.41398    0.27012   1.00
C3       0.89277    0.44351    0.08038   1.00
C3       0.88924    0.43954    0.24981   1.00
C3       0.93843    0.39004    0.08242   1.00
C3       0.93906    0.38999    0.24738   1.00
H1       0.87557    0.46562    0.13385   1.00
H1       0.86933    0.45960    0.19648   1.00
C5       0.96081    0.36280    0.14480   1.00
C5       0.96742    0.36897    0.18520   1.00
H1       0.87594    0.46328    0.06545   1.00
H1       0.87055    0.45745    0.26490   1.00
H1       0.95614    0.37063    0.06820   1.00
H1       0.95622    0.36996    0.26132   1.00
O3       0.97803    0.33209    0.12539   1.00
O3       0.99789    0.35040    0.20401   1.00
Si1      0.95546    0.29022    0.12253   1.00
Si1      1.03804    0.37466    0.21221   1.00
C6       0.98804    0.26765    0.08962   1.00
C6       0.95773    0.26830    0.16902   1.00
C6       0.90815    0.29390    0.10247   1.00
C6       1.03996    0.42423    0.19807   1.00
C6       1.04355    0.37118    0.26302   1.00
C6       1.07641    0.34844    0.19023   1.00
C6       0.99988    0.29248    0.05306   1.00
H2       1.01458    0.26517    0.10709   1.00
C6       0.97994    0.22552    0.07353   1.00
H2       0.98374    0.28186    0.18142   1.00
C6       0.92404    0.27670    0.19866   1.00
C6       0.96496    0.22328    0.17164   1.00
H2       0.91318    0.31200    0.07669   1.00
C6       0.88878    0.25536    0.08728   1.00
C6       0.87491    0.31443    0.12651   1.00
C6       1.03205    0.43440    0.15429   1.00
C6       1.01766    0.45560    0.22275   1.00
H2       1.07062    0.43142    0.20288   1.00
H2       1.02014    0.38945    0.27449   1.00
C6       1.03669    0.32983    0.28122   1.00
C6       1.08234    0.38707    0.28107   1.00
H2       1.08309    0.32545    0.21125   1.00
C6       1.06637    0.32653    0.15164   1.00
C6       1.11580    0.37031    0.18256   1.00
H2       1.01204    0.32070    0.06154   1.00
H2       0.97480    0.29783    0.03410   1.00
H2       1.02230    0.27769    0.03583   1.00
H2       1.00751    0.21011    0.06892   1.00
H2       0.96239    0.20792    0.09322   1.00
H2       0.96504    0.22600    0.04536   1.00
H2       0.93278    0.26864    0.22828   1.00
H2       0.91644    0.30751    0.19968   1.00
H2       0.89792    0.25996    0.19148   1.00
H2       0.99161    0.21486    0.15638   1.00
H2       0.96873    0.21388    0.20192   1.00
H2       0.94041    0.20696    0.15950   1.00
H2       0.88867    0.23287    0.10986   1.00
H2       0.85859    0.25997    0.07792   1.00
H2       0.90378    0.24421    0.06168   1.00
H2       0.85993    0.29415    0.14598   1.00
H2       0.88518    0.33843    0.14432   1.00
H2       0.85290    0.32640    0.10672   1.00
H2       1.00094    0.43646    0.14812   1.00
H2       1.04489    0.46266    0.14691   1.00
H2       1.04470    0.41301    0.13452   1.00
H2       1.02609    0.48505    0.21375   1.00
H2       0.98618    0.45354    0.21926   1.00
H2       1.02443    0.45350    0.25378   1.00
H2       1.03417    0.33191    0.31298   1.00
H2       1.00956    0.31681    0.27065   1.00
H2       1.06055    0.30979    0.27465   1.00
H2       1.08892    0.41650    0.27084   1.00
H2       1.08000    0.38860    0.31288   1.00
H2       1.10702    0.36814    0.27415   1.00
H2       1.05765    0.34648    0.12844   1.00
H2       1.09101    0.30921    0.14119   1.00
H2       1.04241    0.30643    0.15666   1.00
H2       1.13883    0.34972    0.17456   1.00
H2       1.11299    0.39137    0.15878   1.00
H2       1.12593    0.38579    0.20843   1.00
