data_IRMOF10_SG202_interpen_Ligand1cp_label_c.

_audit_creation_method             'generated by an auxiliary program of Tobunporous'

_symmetry_space_group_name_H-M     'P 1'
_symmetry_Int_Tables_number        1
_symmetry_cell_setting             triclinic

_cell_length_a                    34.2800
_cell_length_b                    34.2800
_cell_length_c                    34.2800
_cell_angle_alpha                 90.0000
_cell_angle_beta                  90.0000
_cell_angle_gamma                 90.0000

loop_
_atom_site_label
_atom_site_fract_x
_atom_site_fract_y
_atom_site_fract_z
_atom_site_occupancy
O1       0.75000    0.75000    0.75000   1.00
Zn1      0.71720    0.78280    0.78280   1.00
Zn1      0.78280    0.71720    0.78280   1.00
Zn1      0.78280    0.78280    0.71720   1.00
Zn1      0.71720    0.71720    0.71720   1.00
O2       0.72650    0.77350    0.83820   1.00
O2       0.72650    0.83820    0.77350   1.00
O2       0.66180    0.77350    0.77350   1.00
O2       0.77350    0.72650    0.83820   1.00
O2       0.83820    0.72650    0.77350   1.00
O2       0.77350    0.66180    0.77350   1.00
O2       0.77350    0.83820    0.72650   1.00
O2       0.83820    0.77350    0.72650   1.00
O2       0.77350    0.77350    0.66180   1.00
O2       0.66180    0.72650    0.72650   1.00
O2       0.72650    0.66180    0.72650   1.00
O2       0.72650    0.72650    0.66180   1.00
C1       0.75000    0.75000    0.85520   1.00
C1       0.75000    0.85520    0.75000   1.00
C1       0.64480    0.75000    0.75000   1.00
C1       0.85520    0.75000    0.75000   1.00
C1       0.75000    0.64480    0.75000   1.00
C1       0.75000    0.75000    0.64480   1.00
O1       0.25000    0.25000    0.75000   1.00
Zn1      0.21720    0.28280    0.78280   1.00
Zn1      0.28280    0.21720    0.78280   1.00
Zn1      0.28280    0.28280    0.71720   1.00
Zn1      0.21720    0.21720    0.71720   1.00
O2       0.22650    0.27350    0.83820   1.00
O2       0.22650    0.33820    0.77350   1.00
O2       0.16180    0.27350    0.77350   1.00
O2       0.27350    0.22650    0.83820   1.00
O2       0.33820    0.22650    0.77350   1.00
O2       0.27350    0.16180    0.77350   1.00
O2       0.27350    0.33820    0.72650   1.00
O2       0.33820    0.27350    0.72650   1.00
O2       0.27350    0.27350    0.66180   1.00
O2       0.16180    0.22650    0.72650   1.00
O2       0.22650    0.16180    0.72650   1.00
O2       0.22650    0.22650    0.66180   1.00
C1       0.25000    0.25000    0.85520   1.00
C1       0.25000    0.35520    0.75000   1.00
C1       0.14480    0.25000    0.75000   1.00
C1       0.35520    0.25000    0.75000   1.00
C1       0.25000    0.14480    0.75000   1.00
C1       0.25000    0.25000    0.64480   1.00
O1       0.25000    0.75000    0.25000   1.00
Zn1      0.21720    0.78280    0.28280   1.00
Zn1      0.28280    0.71720    0.28280   1.00
Zn1      0.28280    0.78280    0.21720   1.00
Zn1      0.21720    0.71720    0.21720   1.00
O2       0.22650    0.77350    0.33820   1.00
O2       0.22650    0.83820    0.27350   1.00
O2       0.16180    0.77350    0.27350   1.00
O2       0.27350    0.72650    0.33820   1.00
O2       0.33820    0.72650    0.27350   1.00
O2       0.27350    0.66180    0.27350   1.00
O2       0.27350    0.83820    0.22650   1.00
O2       0.33820    0.77350    0.22650   1.00
O2       0.27350    0.77350    0.16180   1.00
O2       0.16180    0.72650    0.22650   1.00
O2       0.22650    0.66180    0.22650   1.00
O2       0.22650    0.72650    0.16180   1.00
C1       0.25000    0.75000    0.35520   1.00
C1       0.25000    0.85520    0.25000   1.00
C1       0.14480    0.75000    0.25000   1.00
C1       0.35520    0.75000    0.25000   1.00
C1       0.25000    0.64480    0.25000   1.00
C1       0.25000    0.75000    0.14480   1.00
O1       0.75000    0.25000    0.25000   1.00
Zn1      0.71720    0.28280    0.28280   1.00
Zn1      0.78280    0.21720    0.28280   1.00
Zn1      0.78280    0.28280    0.21720   1.00
Zn1      0.71720    0.21720    0.21720   1.00
O2       0.72650    0.27350    0.33820   1.00
O2       0.72650    0.33820    0.27350   1.00
O2       0.66180    0.27350    0.27350   1.00
O2       0.77350    0.22650    0.33820   1.00
O2       0.83820    0.22650    0.27350   1.00
O2       0.77350    0.16180    0.27350   1.00
O2       0.77350    0.33820    0.22650   1.00
O2       0.83820    0.27350    0.22650   1.00
O2       0.77350    0.27350    0.16180   1.00
O2       0.66180    0.22650    0.22650   1.00
O2       0.72650    0.16180    0.22650   1.00
O2       0.72650    0.22650    0.16180   1.00
C1       0.75000    0.25000    0.35520   1.00
C1       0.75000    0.35520    0.25000   1.00
C1       0.64480    0.25000    0.25000   1.00
C1       0.85520    0.25000    0.25000   1.00
C1       0.75000    0.14480    0.25000   1.00
C1       0.75000    0.25000    0.14480   1.00
O1       0.25000    0.25000    0.25000   1.00
Zn1      0.28280    0.21720    0.21720   1.00
Zn1      0.21720    0.28280    0.21720   1.00
Zn1      0.21720    0.21720    0.28280   1.00
Zn1      0.28280    0.28280    0.28280   1.00
O2       0.27350    0.22650    0.16180   1.00
O2       0.27350    0.16180    0.22650   1.00
O2       0.33820    0.22650    0.22650   1.00
O2       0.22650    0.27350    0.16180   1.00
O2       0.16180    0.27350    0.22650   1.00
O2       0.22650    0.33820    0.22650   1.00
O2       0.22650    0.16180    0.27350   1.00
O2       0.16180    0.22650    0.27350   1.00
O2       0.22650    0.22650    0.33820   1.00
O2       0.33820    0.27350    0.27350   1.00
O2       0.27350    0.33820    0.27350   1.00
O2       0.27350    0.27350    0.33820   1.00
C1       0.25000    0.25000    0.14480   1.00
C1       0.25000    0.14480    0.25000   1.00
C1       0.35520    0.25000    0.25000   1.00
C1       0.14480    0.25000    0.25000   1.00
C1       0.25000    0.35520    0.25000   1.00
C1       0.25000    0.25000    0.35520   1.00
O1       0.75000    0.75000    0.25000   1.00
Zn1      0.78280    0.71720    0.21720   1.00
Zn1      0.71720    0.78280    0.21720   1.00
Zn1      0.71720    0.71720    0.28280   1.00
Zn1      0.78280    0.78280    0.28280   1.00
O2       0.77350    0.72650    0.16180   1.00
O2       0.77350    0.66180    0.22650   1.00
O2       0.83820    0.72650    0.22650   1.00
O2       0.72650    0.77350    0.16180   1.00
O2       0.66180    0.77350    0.22650   1.00
O2       0.72650    0.83820    0.22650   1.00
O2       0.72650    0.66180    0.27350   1.00
O2       0.66180    0.72650    0.27350   1.00
O2       0.72650    0.72650    0.33820   1.00
O2       0.83820    0.77350    0.27350   1.00
O2       0.77350    0.83820    0.27350   1.00
O2       0.77350    0.77350    0.33820   1.00
C1       0.75000    0.75000    0.14480   1.00
C1       0.75000    0.64480    0.25000   1.00
C1       0.85520    0.75000    0.25000   1.00
C1       0.64480    0.75000    0.25000   1.00
C1       0.75000    0.85520    0.25000   1.00
C1       0.75000    0.75000    0.35520   1.00
O1       0.75000    0.25000    0.75000   1.00
Zn1      0.78280    0.21720    0.71720   1.00
Zn1      0.71720    0.28280    0.71720   1.00
Zn1      0.71720    0.21720    0.78280   1.00
Zn1      0.78280    0.28280    0.78280   1.00
O2       0.77350    0.22650    0.66180   1.00
O2       0.77350    0.16180    0.72650   1.00
O2       0.83820    0.22650    0.72650   1.00
O2       0.72650    0.27350    0.66180   1.00
O2       0.66180    0.27350    0.72650   1.00
O2       0.72650    0.33820    0.72650   1.00
O2       0.72650    0.16180    0.77350   1.00
O2       0.66180    0.22650    0.77350   1.00
O2       0.72650    0.22650    0.83820   1.00
O2       0.83820    0.27350    0.77350   1.00
O2       0.77350    0.33820    0.77350   1.00
O2       0.77350    0.27350    0.83820   1.00
C1       0.75000    0.25000    0.64480   1.00
C1       0.75000    0.14480    0.75000   1.00
C1       0.85520    0.25000    0.75000   1.00
C1       0.64480    0.25000    0.75000   1.00
C1       0.75000    0.35520    0.75000   1.00
C1       0.75000    0.25000    0.85520   1.00
O1       0.25000    0.75000    0.75000   1.00
Zn1      0.28280    0.71720    0.71720   1.00
Zn1      0.21720    0.78280    0.71720   1.00
Zn1      0.21720    0.71720    0.78280   1.00
Zn1      0.28280    0.78280    0.78280   1.00
O2       0.27350    0.72650    0.66180   1.00
O2       0.27350    0.66180    0.72650   1.00
O2       0.33820    0.72650    0.72650   1.00
O2       0.22650    0.77350    0.66180   1.00
O2       0.16180    0.77350    0.72650   1.00
O2       0.22650    0.83820    0.72650   1.00
O2       0.22650    0.66180    0.77350   1.00
O2       0.16180    0.72650    0.77350   1.00
O2       0.22650    0.72650    0.83820   1.00
O2       0.33820    0.77350    0.77350   1.00
O2       0.27350    0.83820    0.77350   1.00
O2       0.27350    0.77350    0.83820   1.00
C1       0.25000    0.75000    0.64480   1.00
C1       0.25000    0.64480    0.75000   1.00
C1       0.35520    0.75000    0.75000   1.00
C1       0.14480    0.75000    0.75000   1.00
C1       0.25000    0.85520    0.75000   1.00
C1       0.25000    0.75000    0.85520   1.00
O1       0.91500    0.91500    0.91500   1.00
Zn1      0.88220    0.94780    0.94780   1.00
Zn1      0.94780    0.88220    0.94780   1.00
Zn1      0.94780    0.94780    0.88220   1.00
Zn1      0.88220    0.88220    0.88220   1.00
O2       0.89150    0.93850    1.00320   1.00
O2       0.89150    1.00320    0.93850   1.00
O2       0.82680    0.93850    0.93850   1.00
O2       0.93850    0.89150    1.00320   1.00
O2       1.00320    0.89150    0.93850   1.00
O2       0.93850    0.82680    0.93850   1.00
O2       0.93850    1.00320    0.89150   1.00
O2       1.00320    0.93850    0.89150   1.00
O2       0.93850    0.93850    0.82680   1.00
O2       0.82680    0.89150    0.89150   1.00
O2       0.89150    0.82680    0.89150   1.00
O2       0.89150    0.89150    0.82680   1.00
C1       0.91500    0.91500    1.02020   1.00
C1       0.91500    1.02020    0.91500   1.00
C1       0.80980    0.91500    0.91500   1.00
C1       1.02020    0.91500    0.91500   1.00
C1       0.91500    0.80980    0.91500   1.00
C1       0.91500    0.91500    0.80980   1.00
O1       0.41500    0.41500    0.91500   1.00
Zn1      0.38220    0.44780    0.94780   1.00
Zn1      0.44780    0.38220    0.94780   1.00
Zn1      0.44780    0.44780    0.88220   1.00
Zn1      0.38220    0.38220    0.88220   1.00
O2       0.39150    0.43850    1.00320   1.00
O2       0.39150    0.50320    0.93850   1.00
O2       0.32680    0.43850    0.93850   1.00
O2       0.43850    0.39150    1.00320   1.00
O2       0.50320    0.39150    0.93850   1.00
O2       0.43850    0.32680    0.93850   1.00
O2       0.43850    0.50320    0.89150   1.00
O2       0.50320    0.43850    0.89150   1.00
O2       0.43850    0.43850    0.82680   1.00
O2       0.32680    0.39150    0.89150   1.00
O2       0.39150    0.32680    0.89150   1.00
O2       0.39150    0.39150    0.82680   1.00
C1       0.41500    0.41500    1.02020   1.00
C1       0.41500    0.52020    0.91500   1.00
C1       0.30980    0.41500    0.91500   1.00
C1       0.52020    0.41500    0.91500   1.00
C1       0.41500    0.30980    0.91500   1.00
C1       0.41500    0.41500    0.80980   1.00
O1       0.41500    0.91500    0.41500   1.00
Zn1      0.38220    0.94780    0.44780   1.00
Zn1      0.44780    0.88220    0.44780   1.00
Zn1      0.44780    0.94780    0.38220   1.00
Zn1      0.38220    0.88220    0.38220   1.00
O2       0.39150    0.93850    0.50320   1.00
O2       0.39150    1.00320    0.43850   1.00
O2       0.32680    0.93850    0.43850   1.00
O2       0.43850    0.89150    0.50320   1.00
O2       0.50320    0.89150    0.43850   1.00
O2       0.43850    0.82680    0.43850   1.00
O2       0.43850    1.00320    0.39150   1.00
O2       0.50320    0.93850    0.39150   1.00
O2       0.43850    0.93850    0.32680   1.00
O2       0.32680    0.89150    0.39150   1.00
O2       0.39150    0.82680    0.39150   1.00
O2       0.39150    0.89150    0.32680   1.00
C1       0.41500    0.91500    0.52020   1.00
C1       0.41500    1.02020    0.41500   1.00
C1       0.30980    0.91500    0.41500   1.00
C1       0.52020    0.91500    0.41500   1.00
C1       0.41500    0.80980    0.41500   1.00
C1       0.41500    0.91500    0.30980   1.00
O1       0.91500    0.41500    0.41500   1.00
Zn1      0.88220    0.44780    0.44780   1.00
Zn1      0.94780    0.38220    0.44780   1.00
Zn1      0.94780    0.44780    0.38220   1.00
Zn1      0.88220    0.38220    0.38220   1.00
O2       0.89150    0.43850    0.50320   1.00
O2       0.89150    0.50320    0.43850   1.00
O2       0.82680    0.43850    0.43850   1.00
O2       0.93850    0.39150    0.50320   1.00
O2       1.00320    0.39150    0.43850   1.00
O2       0.93850    0.32680    0.43850   1.00
O2       0.93850    0.50320    0.39150   1.00
O2       1.00320    0.43850    0.39150   1.00
O2       0.93850    0.43850    0.32680   1.00
O2       0.82680    0.39150    0.39150   1.00
O2       0.89150    0.32680    0.39150   1.00
O2       0.89150    0.39150    0.32680   1.00
C1       0.91500    0.41500    0.52020   1.00
C1       0.91500    0.52020    0.41500   1.00
C1       0.80980    0.41500    0.41500   1.00
C1       1.02020    0.41500    0.41500   1.00
C1       0.91500    0.30980    0.41500   1.00
C1       0.91500    0.41500    0.30980   1.00
O1       0.41500    0.41500    0.41500   1.00
Zn1      0.44780    0.38220    0.38220   1.00
Zn1      0.38220    0.44780    0.38220   1.00
Zn1      0.38220    0.38220    0.44780   1.00
Zn1      0.44780    0.44780    0.44780   1.00
O2       0.43850    0.39150    0.32680   1.00
O2       0.43850    0.32680    0.39150   1.00
O2       0.50320    0.39150    0.39150   1.00
O2       0.39150    0.43850    0.32680   1.00
O2       0.32680    0.43850    0.39150   1.00
O2       0.39150    0.50320    0.39150   1.00
O2       0.39150    0.32680    0.43850   1.00
O2       0.32680    0.39150    0.43850   1.00
O2       0.39150    0.39150    0.50320   1.00
O2       0.50320    0.43850    0.43850   1.00
O2       0.43850    0.50320    0.43850   1.00
O2       0.43850    0.43850    0.50320   1.00
C1       0.41500    0.41500    0.30980   1.00
C1       0.41500    0.30980    0.41500   1.00
C1       0.52020    0.41500    0.41500   1.00
C1       0.30980    0.41500    0.41500   1.00
C1       0.41500    0.52020    0.41500   1.00
C1       0.41500    0.41500    0.52020   1.00
O1       0.91500    0.91500    0.41500   1.00
Zn1      0.94780    0.88220    0.38220   1.00
Zn1      0.88220    0.94780    0.38220   1.00
Zn1      0.88220    0.88220    0.44780   1.00
Zn1      0.94780    0.94780    0.44780   1.00
O2       0.93850    0.89150    0.32680   1.00
O2       0.93850    0.82680    0.39150   1.00
O2       1.00320    0.89150    0.39150   1.00
O2       0.89150    0.93850    0.32680   1.00
O2       0.82680    0.93850    0.39150   1.00
O2       0.89150    1.00320    0.39150   1.00
O2       0.89150    0.82680    0.43850   1.00
O2       0.82680    0.89150    0.43850   1.00
O2       0.89150    0.89150    0.50320   1.00
O2       1.00320    0.93850    0.43850   1.00
O2       0.93850    1.00320    0.43850   1.00
O2       0.93850    0.93850    0.50320   1.00
C1       0.91500    0.91500    0.30980   1.00
C1       0.91500    0.80980    0.41500   1.00
C1       1.02020    0.91500    0.41500   1.00
C1       0.80980    0.91500    0.41500   1.00
C1       0.91500    1.02020    0.41500   1.00
C1       0.91500    0.91500    0.52020   1.00
O1       0.91500    0.41500    0.91500   1.00
Zn1      0.94780    0.38220    0.88220   1.00
Zn1      0.88220    0.44780    0.88220   1.00
Zn1      0.88220    0.38220    0.94780   1.00
Zn1      0.94780    0.44780    0.94780   1.00
O2       0.93850    0.39150    0.82680   1.00
O2       0.93850    0.32680    0.89150   1.00
O2       1.00320    0.39150    0.89150   1.00
O2       0.89150    0.43850    0.82680   1.00
O2       0.82680    0.43850    0.89150   1.00
O2       0.89150    0.50320    0.89150   1.00
O2       0.89150    0.32680    0.93850   1.00
O2       0.82680    0.39150    0.93850   1.00
O2       0.89150    0.39150    1.00320   1.00
O2       1.00320    0.43850    0.93850   1.00
O2       0.93850    0.50320    0.93850   1.00
O2       0.93850    0.43850    1.00320   1.00
C1       0.91500    0.41500    0.80980   1.00
C1       0.91500    0.30980    0.91500   1.00
C1       1.02020    0.41500    0.91500   1.00
C1       0.80980    0.41500    0.91500   1.00
C1       0.91500    0.52020    0.91500   1.00
C1       0.91500    0.41500    1.02020   1.00
O1       0.41500    0.91500    0.91500   1.00
Zn1      0.44780    0.88220    0.88220   1.00
Zn1      0.38220    0.94780    0.88220   1.00
Zn1      0.38220    0.88220    0.94780   1.00
Zn1      0.44780    0.94780    0.94780   1.00
O2       0.43850    0.89150    0.82680   1.00
O2       0.43850    0.82680    0.89150   1.00
O2       0.50320    0.89150    0.89150   1.00
O2       0.39150    0.93850    0.82680   1.00
O2       0.32680    0.93850    0.89150   1.00
O2       0.39150    1.00320    0.89150   1.00
O2       0.39150    0.82680    0.93850   1.00
O2       0.32680    0.89150    0.93850   1.00
O2       0.39150    0.89150    1.00320   1.00
O2       0.50320    0.93850    0.93850   1.00
O2       0.43850    1.00320    0.93850   1.00
O2       0.43850    0.93850    1.00320   1.00
C1       0.41500    0.91500    0.80980   1.00
C1       0.41500    0.80980    0.91500   1.00
C1       0.52020    0.91500    0.91500   1.00
C1       0.30980    0.91500    0.91500   1.00
C1       0.41500    1.02020    0.91500   1.00
C1       0.41500    0.91500    1.02020   1.00
C5       0.73330    0.87591    1.13227   1.00
H2       0.70802    0.86261    1.14755   1.00
H2       0.72076    0.89690    1.11099   1.00
C5       0.75935    0.89749    1.16219   1.00
H2       0.74729    0.92690    1.16890   1.00
H2       0.78943    0.90082    1.15040   1.00
O_3      0.81752    0.77115    0.98000   1.00
C4       0.74963    0.74975    1.02100   1.00
C3c      0.73859    0.78288    1.04243   1.00
H1       0.72973    0.80908    1.02725   1.00
C3d      0.76053    0.71573    1.04135   1.00
C3       0.73929    0.78301    1.08354   1.00
O2       0.72359    0.81476    1.10248   1.00
C3       0.76198    0.71600    1.08227   1.00
H1       0.77185    0.68968    1.09657   1.00
C2       0.75131    0.74940    1.10439   1.00
C5       0.84552    0.74095    0.97879   1.00
H2       0.85458    0.73380    0.94838   1.00
H2       0.83409    0.71380    0.99266   1.00
C5       0.88117    0.75480    1.00122   1.00
H2       0.87192    0.76299    1.03129   1.00
H2       0.89255    0.78170    0.98691   1.00
C5       0.91268    0.72304    1.00254   1.00
H2       0.92186    0.71452    0.97260   1.00
H2       0.90179    0.69665    1.01803   1.00
H2       0.93884    0.73399    1.01830   1.00
C5       0.74289    0.65916    1.01105   1.00
C5       0.75325    0.84224    1.11070   1.00
H2       0.72259    0.67448    0.99088   1.00
H2       0.72613    0.64918    1.03712   1.00
H2       0.76662    0.85293    1.08300   1.00
H2       0.77723    0.82968    1.12895   1.00
H2       0.76062    0.88140    1.19055   1.00
H2       0.71686    0.61758    0.94250   1.00
H2       0.70324    0.59331    0.98766   1.00
C2       0.75234    0.74893    0.89605   1.00
C3       0.71737    0.74010    0.91597   1.00
O2       0.68702    0.72194    0.89674   1.00
C3       0.78541    0.75979    0.91826   1.00
H1       0.81232    0.76770    0.90385   1.00
C3a      0.71649    0.74130    0.95713   1.00
H1       0.69016    0.73231    0.97202   1.00
C3b      0.78478    0.75974    0.95922   1.00
C4       0.75018    0.75038    0.97900   1.00
O_3      0.77447    0.68334    1.02167   1.00
C5       0.65779    0.74933    0.88720   1.00
H2       0.64592    0.76374    0.91391   1.00
C5       0.62507    0.72691    0.86666   1.00
H2       0.66938    0.77227    0.86726   1.00
H2       0.60702    0.71207    0.88923   1.00
H2       0.63896    0.70343    0.84899   1.00
C5       0.59940    0.75322    0.84069   1.00
H2       0.58829    0.77821    0.85811   1.00
H2       0.57408    0.73660    0.82891   1.00
H2       0.61604    0.76440    0.81494   1.00
C5       0.75962    0.62368    0.99020   1.00
H2       0.77438    0.60483    1.01218   1.00
H2       0.78257    0.63389    0.96955   1.00
C5       0.72802    0.60071    0.96803   1.00
H2       0.74043    0.57299    0.95666   1.00
C5       0.87591    1.13227    0.73330   1.00
H2       0.86261    1.14755    0.70802   1.00
H2       0.89690    1.11099    0.72076   1.00
C5       0.89749    1.16219    0.75935   1.00
H2       0.92690    1.16890    0.74729   1.00
H2       0.90082    1.15040    0.78943   1.00
O_3      0.77115    0.98000    0.81752   1.00
C4       0.74975    1.02100    0.74963   1.00
C3c      0.78288    1.04243    0.73859   1.00
H1       0.80908    1.02725    0.72973   1.00
C3d      0.71573    1.04135    0.76053   1.00
C3       0.78301    1.08354    0.73929   1.00
O2       0.81476    1.10248    0.72359   1.00
C3       0.71600    1.08227    0.76198   1.00
H1       0.68968    1.09657    0.77185   1.00
C2       0.74940    1.10439    0.75131   1.00
C5       0.74095    0.97879    0.84552   1.00
H2       0.73380    0.94838    0.85458   1.00
H2       0.71380    0.99266    0.83409   1.00
C5       0.75480    1.00122    0.88117   1.00
H2       0.76299    1.03129    0.87192   1.00
H2       0.78170    0.98691    0.89255   1.00
C5       0.72304    1.00254    0.91268   1.00
H2       0.71452    0.97260    0.92186   1.00
H2       0.69665    1.01803    0.90179   1.00
H2       0.73399    1.01830    0.93884   1.00
C5       0.65916    1.01105    0.74289   1.00
C5       0.84224    1.11070    0.75325   1.00
H2       0.67448    0.99088    0.72259   1.00
H2       0.64918    1.03712    0.72613   1.00
H2       0.85293    1.08300    0.76662   1.00
H2       0.82968    1.12895    0.77723   1.00
H2       0.88140    1.19055    0.76062   1.00
H2       0.61758    0.94250    0.71686   1.00
H2       0.59331    0.98766    0.70324   1.00
C2       0.74893    0.89605    0.75234   1.00
C3       0.74010    0.91597    0.71737   1.00
O2       0.72194    0.89674    0.68702   1.00
C3       0.75979    0.91826    0.78541   1.00
H1       0.76770    0.90385    0.81232   1.00
C3a      0.74130    0.95713    0.71649   1.00
H1       0.73231    0.97202    0.69016   1.00
C3b      0.75974    0.95922    0.78478   1.00
C4       0.75038    0.97900    0.75018   1.00
O_3      0.68334    1.02167    0.77447   1.00
C5       0.74933    0.88720    0.65779   1.00
H2       0.76374    0.91391    0.64592   1.00
C5       0.72691    0.86666    0.62507   1.00
H2       0.77227    0.86726    0.66938   1.00
H2       0.71207    0.88923    0.60702   1.00
H2       0.70343    0.84899    0.63896   1.00
C5       0.75322    0.84069    0.59940   1.00
H2       0.77821    0.85811    0.58829   1.00
H2       0.73660    0.82891    0.57408   1.00
H2       0.76440    0.81494    0.61604   1.00
C5       0.62368    0.99020    0.75962   1.00
H2       0.60483    1.01218    0.77438   1.00
H2       0.63389    0.96955    0.78257   1.00
C5       0.60071    0.96803    0.72802   1.00
H2       0.57299    0.95666    0.74043   1.00
C5       0.36773    0.73330    0.62409   1.00
H2       0.35245    0.70802    0.63739   1.00
H2       0.38901    0.72076    0.60310   1.00
C5       0.33781    0.75935    0.60251   1.00
H2       0.33110    0.74729    0.57310   1.00
H2       0.34960    0.78943    0.59918   1.00
O_3      0.52000    0.81752    0.72885   1.00
C4       0.47900    0.74963    0.75025   1.00
C3c      0.45757    0.73859    0.71712   1.00
H1       0.47275    0.72973    0.69092   1.00
C3d      0.45865    0.76053    0.78427   1.00
C3       0.41646    0.73929    0.71699   1.00
O2       0.39752    0.72359    0.68524   1.00
C3       0.41773    0.76198    0.78400   1.00
H1       0.40343    0.77185    0.81032   1.00
C2       0.39561    0.75131    0.75060   1.00
C5       0.52121    0.84552    0.75905   1.00
H2       0.55162    0.85458    0.76620   1.00
H2       0.50734    0.83409    0.78620   1.00
C5       0.49878    0.88117    0.74520   1.00
H2       0.46871    0.87192    0.73701   1.00
H2       0.51309    0.89255    0.71830   1.00
C5       0.49746    0.91268    0.77696   1.00
H2       0.52740    0.92186    0.78548   1.00
H2       0.48197    0.90179    0.80335   1.00
H2       0.48170    0.93884    0.76601   1.00
C5       0.48895    0.74289    0.84084   1.00
C5       0.38930    0.75325    0.65776   1.00
H2       0.50912    0.72259    0.82552   1.00
H2       0.46288    0.72613    0.85082   1.00
H2       0.41700    0.76662    0.64707   1.00
H2       0.37105    0.77723    0.67032   1.00
H2       0.30945    0.76062    0.61860   1.00
H2       0.55750    0.71686    0.88242   1.00
H2       0.51234    0.70324    0.90669   1.00
C2       0.60395    0.75234    0.75107   1.00
C3       0.58403    0.71737    0.75990   1.00
O2       0.60326    0.68702    0.77806   1.00
C3       0.58174    0.78541    0.74021   1.00
H1       0.59615    0.81232    0.73230   1.00
C3a      0.54287    0.71649    0.75870   1.00
H1       0.52798    0.69016    0.76769   1.00
C3b      0.54078    0.78478    0.74026   1.00
C4       0.52100    0.75018    0.74962   1.00
O_3      0.47833    0.77447    0.81666   1.00
C5       0.61280    0.65779    0.75067   1.00
H2       0.58609    0.64592    0.73626   1.00
C5       0.63334    0.62507    0.77309   1.00
H2       0.63274    0.66938    0.72773   1.00
H2       0.61077    0.60702    0.78793   1.00
H2       0.65101    0.63896    0.79657   1.00
C5       0.65931    0.59940    0.74678   1.00
H2       0.64189    0.58829    0.72179   1.00
H2       0.67109    0.57408    0.76340   1.00
H2       0.68506    0.61604    0.73560   1.00
C5       0.50980    0.75962    0.87632   1.00
H2       0.48782    0.77438    0.89517   1.00
H2       0.53045    0.78257    0.86611   1.00
C5       0.53197    0.72802    0.89929   1.00
H2       0.54334    0.74043    0.92701   1.00
C5       1.13227    0.73330    0.87591   1.00
H2       1.14755    0.70802    0.86261   1.00
H2       1.11099    0.72076    0.89690   1.00
C5       1.16219    0.75935    0.89749   1.00
H2       1.16890    0.74729    0.92690   1.00
H2       1.15040    0.78943    0.90082   1.00
O_3      0.98000    0.81752    0.77115   1.00
C4       1.02100    0.74963    0.74975   1.00
C3c      1.04243    0.73859    0.78288   1.00
H1       1.02725    0.72973    0.80908   1.00
C3d      1.04135    0.76053    0.71573   1.00
C3       1.08354    0.73929    0.78301   1.00
O2       1.10248    0.72359    0.81476   1.00
C3       1.08227    0.76198    0.71600   1.00
H1       1.09657    0.77185    0.68968   1.00
C2       1.10439    0.75131    0.74940   1.00
C5       0.97879    0.84552    0.74095   1.00
H2       0.94838    0.85458    0.73380   1.00
H2       0.99266    0.83409    0.71380   1.00
C5       1.00122    0.88117    0.75480   1.00
H2       1.03129    0.87192    0.76299   1.00
H2       0.98691    0.89255    0.78170   1.00
C5       1.00254    0.91268    0.72304   1.00
H2       0.97260    0.92186    0.71452   1.00
H2       1.01803    0.90179    0.69665   1.00
H2       1.01830    0.93884    0.73399   1.00
C5       1.01105    0.74289    0.65916   1.00
C5       1.11070    0.75325    0.84224   1.00
H2       0.99088    0.72259    0.67448   1.00
H2       1.03712    0.72613    0.64918   1.00
H2       1.08300    0.76662    0.85293   1.00
H2       1.12895    0.77723    0.82968   1.00
H2       1.19055    0.76062    0.88140   1.00
H2       0.94250    0.71686    0.61758   1.00
H2       0.98766    0.70324    0.59331   1.00
C2       0.89605    0.75234    0.74893   1.00
C3       0.91597    0.71737    0.74010   1.00
O2       0.89674    0.68702    0.72194   1.00
C3       0.91826    0.78541    0.75979   1.00
H1       0.90385    0.81232    0.76770   1.00
C3a      0.95713    0.71649    0.74130   1.00
H1       0.97202    0.69016    0.73231   1.00
C3b      0.95922    0.78478    0.75974   1.00
C4       0.97900    0.75018    0.75038   1.00
O_3      1.02167    0.77447    0.68334   1.00
C5       0.88720    0.65779    0.74933   1.00
H2       0.91391    0.64592    0.76374   1.00
C5       0.86666    0.62507    0.72691   1.00
H2       0.86726    0.66938    0.77227   1.00
H2       0.88923    0.60702    0.71207   1.00
H2       0.84899    0.63896    0.70343   1.00
C5       0.84069    0.59940    0.75322   1.00
H2       0.85811    0.58829    0.77821   1.00
H2       0.82891    0.57408    0.73660   1.00
H2       0.81494    0.61604    0.76440   1.00
C5       0.99020    0.75962    0.62368   1.00
H2       1.01218    0.77438    0.60483   1.00
H2       0.96955    0.78257    0.63389   1.00
C5       0.96803    0.72802    0.60071   1.00
H2       0.95666    0.74043    0.57299   1.00
C5       0.62409    0.36773    0.73330   1.00
H2       0.63739    0.35245    0.70802   1.00
H2       0.60310    0.38901    0.72076   1.00
C5       0.60251    0.33781    0.75935   1.00
H2       0.57310    0.33110    0.74729   1.00
H2       0.59918    0.34960    0.78943   1.00
O_3      0.72885    0.52000    0.81752   1.00
C4       0.75025    0.47900    0.74963   1.00
C3c      0.71712    0.45757    0.73859   1.00
H1       0.69092    0.47275    0.72973   1.00
C3d      0.78427    0.45865    0.76053   1.00
C3       0.71699    0.41646    0.73929   1.00
O2       0.68524    0.39752    0.72359   1.00
C3       0.78400    0.41773    0.76198   1.00
H1       0.81032    0.40343    0.77185   1.00
C2       0.75060    0.39561    0.75131   1.00
C5       0.75905    0.52121    0.84552   1.00
H2       0.76620    0.55162    0.85458   1.00
H2       0.78620    0.50734    0.83409   1.00
C5       0.74520    0.49878    0.88117   1.00
H2       0.73701    0.46871    0.87192   1.00
H2       0.71830    0.51309    0.89255   1.00
C5       0.77696    0.49746    0.91268   1.00
H2       0.78548    0.52740    0.92186   1.00
H2       0.80335    0.48197    0.90179   1.00
H2       0.76601    0.48170    0.93884   1.00
C5       0.84084    0.48895    0.74289   1.00
C5       0.65776    0.38930    0.75325   1.00
H2       0.82552    0.50912    0.72259   1.00
H2       0.85082    0.46288    0.72613   1.00
H2       0.64707    0.41700    0.76662   1.00
H2       0.67032    0.37105    0.77723   1.00
H2       0.61860    0.30945    0.76062   1.00
H2       0.88242    0.55750    0.71686   1.00
H2       0.90669    0.51234    0.70324   1.00
C2       0.75107    0.60395    0.75234   1.00
C3       0.75990    0.58403    0.71737   1.00
O2       0.77806    0.60326    0.68702   1.00
C3       0.74021    0.58174    0.78541   1.00
H1       0.73230    0.59615    0.81232   1.00
C3a      0.75870    0.54287    0.71649   1.00
H1       0.76769    0.52798    0.69016   1.00
C3b      0.74026    0.54078    0.78478   1.00
C4       0.74962    0.52100    0.75018   1.00
O_3      0.81666    0.47833    0.77447   1.00
C5       0.75067    0.61280    0.65779   1.00
H2       0.73626    0.58609    0.64592   1.00
C5       0.77309    0.63334    0.62507   1.00
H2       0.72773    0.63274    0.66938   1.00
H2       0.78793    0.61077    0.60702   1.00
H2       0.79657    0.65101    0.63896   1.00
C5       0.74678    0.65931    0.59940   1.00
H2       0.72179    0.64189    0.58829   1.00
H2       0.76340    0.67109    0.57408   1.00
H2       0.73560    0.68506    0.61604   1.00
C5       0.87632    0.50980    0.75962   1.00
H2       0.89517    0.48782    0.77438   1.00
H2       0.86611    0.53045    0.78257   1.00
C5       0.89929    0.53197    0.72802   1.00
H2       0.92701    0.54334    0.74043   1.00
C5       0.73330    0.62409    0.36773   1.00
H2       0.70802    0.63739    0.35245   1.00
H2       0.72076    0.60310    0.38901   1.00
C5       0.75935    0.60251    0.33781   1.00
H2       0.74729    0.57310    0.33110   1.00
H2       0.78943    0.59918    0.34960   1.00
O_3      0.81752    0.72885    0.52000   1.00
C4       0.74963    0.75025    0.47900   1.00
C3c      0.73859    0.71712    0.45757   1.00
H1       0.72973    0.69092    0.47275   1.00
C3d      0.76053    0.78427    0.45865   1.00
C3       0.73929    0.71699    0.41646   1.00
O2       0.72359    0.68524    0.39752   1.00
C3       0.76198    0.78400    0.41773   1.00
H1       0.77185    0.81032    0.40343   1.00
C2       0.75131    0.75060    0.39561   1.00
C5       0.84552    0.75905    0.52121   1.00
H2       0.85458    0.76620    0.55162   1.00
H2       0.83409    0.78620    0.50734   1.00
C5       0.88117    0.74520    0.49878   1.00
H2       0.87192    0.73701    0.46871   1.00
H2       0.89255    0.71830    0.51309   1.00
C5       0.91268    0.77696    0.49746   1.00
H2       0.92186    0.78548    0.52740   1.00
H2       0.90179    0.80335    0.48197   1.00
H2       0.93884    0.76601    0.48170   1.00
C5       0.74289    0.84084    0.48895   1.00
C5       0.75325    0.65776    0.38930   1.00
H2       0.72259    0.82552    0.50912   1.00
H2       0.72613    0.85082    0.46288   1.00
H2       0.76662    0.64707    0.41700   1.00
H2       0.77723    0.67032    0.37105   1.00
H2       0.76062    0.61860    0.30945   1.00
H2       0.71686    0.88242    0.55750   1.00
H2       0.70324    0.90669    0.51234   1.00
C2       0.75234    0.75107    0.60395   1.00
C3       0.71737    0.75990    0.58403   1.00
O2       0.68702    0.77806    0.60326   1.00
C3       0.78541    0.74021    0.58174   1.00
H1       0.81232    0.73230    0.59615   1.00
C3a      0.71649    0.75870    0.54287   1.00
H1       0.69016    0.76769    0.52798   1.00
C3b      0.78478    0.74026    0.54078   1.00
C4       0.75018    0.74962    0.52100   1.00
O_3      0.77447    0.81666    0.47833   1.00
C5       0.65779    0.75067    0.61280   1.00
H2       0.64592    0.73626    0.58609   1.00
C5       0.62507    0.77309    0.63334   1.00
H2       0.66938    0.72773    0.63274   1.00
H2       0.60702    0.78793    0.61077   1.00
H2       0.63896    0.79657    0.65101   1.00
C5       0.59940    0.74678    0.65931   1.00
H2       0.58829    0.72179    0.64189   1.00
H2       0.57408    0.76340    0.67109   1.00
H2       0.61604    0.73560    0.68506   1.00
C5       0.75962    0.87632    0.50980   1.00
H2       0.77438    0.89517    0.48782   1.00
H2       0.78257    0.86611    0.53045   1.00
C5       0.72802    0.89929    0.53197   1.00
H2       0.74043    0.92701    0.54334   1.00
C5       0.23330    0.37591    1.13227   1.00
H2       0.20802    0.36261    1.14755   1.00
H2       0.22076    0.39690    1.11099   1.00
C5       0.25935    0.39749    1.16219   1.00
H2       0.24729    0.42690    1.16890   1.00
H2       0.28943    0.40082    1.15040   1.00
O_3      0.31752    0.27115    0.98000   1.00
C4       0.24963    0.24975    1.02100   1.00
C3c      0.23859    0.28288    1.04243   1.00
H1       0.22973    0.30908    1.02725   1.00
C3d      0.26053    0.21573    1.04135   1.00
C3       0.23929    0.28301    1.08354   1.00
O2       0.22359    0.31476    1.10248   1.00
C3       0.26198    0.21600    1.08227   1.00
H1       0.27185    0.18968    1.09657   1.00
C2       0.25131    0.24940    1.10439   1.00
C5       0.34552    0.24095    0.97879   1.00
H2       0.35458    0.23380    0.94838   1.00
H2       0.33409    0.21380    0.99266   1.00
C5       0.38117    0.25480    1.00122   1.00
H2       0.37192    0.26299    1.03129   1.00
H2       0.39255    0.28170    0.98691   1.00
C5       0.41268    0.22304    1.00254   1.00
H2       0.42186    0.21452    0.97260   1.00
H2       0.40179    0.19665    1.01803   1.00
H2       0.43884    0.23399    1.01830   1.00
C5       0.24289    0.15916    1.01105   1.00
C5       0.25325    0.34224    1.11070   1.00
H2       0.22259    0.17448    0.99088   1.00
H2       0.22613    0.14918    1.03712   1.00
H2       0.26662    0.35293    1.08300   1.00
H2       0.27723    0.32968    1.12895   1.00
H2       0.26062    0.38140    1.19055   1.00
H2       0.21686    0.11758    0.94250   1.00
H2       0.20324    0.09331    0.98766   1.00
C2       0.25234    0.24893    0.89605   1.00
C3       0.21737    0.24010    0.91597   1.00
O2       0.18702    0.22194    0.89674   1.00
C3       0.28541    0.25979    0.91826   1.00
H1       0.31232    0.26770    0.90385   1.00
C3a      0.21649    0.24130    0.95713   1.00
H1       0.19016    0.23231    0.97202   1.00
C3b      0.28478    0.25974    0.95922   1.00
C4       0.25018    0.25038    0.97900   1.00
O_3      0.27447    0.18334    1.02167   1.00
C5       0.15779    0.24933    0.88720   1.00
H2       0.14592    0.26374    0.91391   1.00
C5       0.12507    0.22691    0.86666   1.00
H2       0.16938    0.27227    0.86726   1.00
H2       0.10702    0.21207    0.88923   1.00
H2       0.13896    0.20343    0.84899   1.00
C5       0.09940    0.25322    0.84069   1.00
H2       0.08829    0.27821    0.85811   1.00
H2       0.07408    0.23660    0.82891   1.00
H2       0.11604    0.26440    0.81494   1.00
C5       0.25962    0.12368    0.99020   1.00
H2       0.27438    0.10483    1.01218   1.00
H2       0.28257    0.13389    0.96955   1.00
C5       0.22802    0.10071    0.96803   1.00
H2       0.24043    0.07299    0.95666   1.00
C5       0.37591    0.63227    0.73330   1.00
H2       0.36261    0.64755    0.70802   1.00
H2       0.39690    0.61099    0.72076   1.00
C5       0.39749    0.66219    0.75935   1.00
H2       0.42690    0.66890    0.74729   1.00
H2       0.40082    0.65040    0.78943   1.00
O_3      0.27115    0.48000    0.81752   1.00
C4       0.24975    0.52100    0.74963   1.00
C3c      0.28288    0.54243    0.73859   1.00
H1       0.30908    0.52725    0.72973   1.00
C3d      0.21573    0.54135    0.76053   1.00
C3       0.28301    0.58354    0.73929   1.00
O2       0.31476    0.60248    0.72359   1.00
C3       0.21600    0.58227    0.76198   1.00
H1       0.18968    0.59657    0.77185   1.00
C2       0.24940    0.60439    0.75131   1.00
C5       0.24095    0.47879    0.84552   1.00
H2       0.23380    0.44838    0.85458   1.00
H2       0.21380    0.49266    0.83409   1.00
C5       0.25480    0.50122    0.88117   1.00
H2       0.26299    0.53129    0.87192   1.00
H2       0.28170    0.48691    0.89255   1.00
C5       0.22304    0.50254    0.91268   1.00
H2       0.21452    0.47260    0.92186   1.00
H2       0.19665    0.51803    0.90179   1.00
H2       0.23399    0.51830    0.93884   1.00
C5       0.15916    0.51105    0.74289   1.00
C5       0.34224    0.61070    0.75325   1.00
H2       0.17448    0.49088    0.72259   1.00
H2       0.14918    0.53712    0.72613   1.00
H2       0.35293    0.58300    0.76662   1.00
H2       0.32968    0.62895    0.77723   1.00
H2       0.38140    0.69055    0.76062   1.00
H2       0.11758    0.44250    0.71686   1.00
H2       0.09331    0.48766    0.70324   1.00
C2       0.24893    0.39605    0.75234   1.00
C3       0.24010    0.41597    0.71737   1.00
O2       0.22194    0.39674    0.68702   1.00
C3       0.25979    0.41826    0.78541   1.00
H1       0.26770    0.40385    0.81232   1.00
C3a      0.24130    0.45713    0.71649   1.00
H1       0.23231    0.47202    0.69016   1.00
C3b      0.25974    0.45922    0.78478   1.00
C4       0.25038    0.47900    0.75018   1.00
O_3      0.18334    0.52167    0.77447   1.00
C5       0.24933    0.38720    0.65779   1.00
H2       0.26374    0.41391    0.64592   1.00
C5       0.22691    0.36666    0.62507   1.00
H2       0.27227    0.36726    0.66938   1.00
H2       0.21207    0.38923    0.60702   1.00
H2       0.20343    0.34899    0.63896   1.00
C5       0.25322    0.34069    0.59940   1.00
H2       0.27821    0.35811    0.58829   1.00
H2       0.23660    0.32891    0.57408   1.00
H2       0.26440    0.31494    0.61604   1.00
C5       0.12368    0.49020    0.75962   1.00
H2       0.10483    0.51218    0.77438   1.00
H2       0.13389    0.46955    0.78257   1.00
C5       0.10071    0.46803    0.72802   1.00
H2       0.07299    0.45666    0.74043   1.00
C5       -0.13227   0.23330    0.62409   1.00
H2       -0.14755   0.20802    0.63739   1.00
H2       -0.11099   0.22076    0.60310   1.00
C5       -0.16219   0.25935    0.60251   1.00
H2       -0.16890   0.24729    0.57310   1.00
H2       -0.15040   0.28943    0.59918   1.00
O_3      0.02000    0.31752    0.72885   1.00
C4       -0.02100   0.24963    0.75025   1.00
C3c      -0.04243   0.23859    0.71712   1.00
H1       -0.02725   0.22973    0.69092   1.00
C3d      -0.04135   0.26053    0.78427   1.00
C3       -0.08354   0.23929    0.71699   1.00
O2       -0.10248   0.22359    0.68524   1.00
C3       -0.08227   0.26198    0.78400   1.00
H1       -0.09657   0.27185    0.81032   1.00
C2       -0.10439   0.25131    0.75060   1.00
C5       0.02121    0.34552    0.75905   1.00
H2       0.05162    0.35458    0.76620   1.00
H2       0.00734    0.33409    0.78620   1.00
C5       -0.00122   0.38117    0.74520   1.00
H2       -0.03129   0.37192    0.73701   1.00
H2       0.01309    0.39255    0.71830   1.00
C5       -0.00254   0.41268    0.77696   1.00
H2       0.02740    0.42186    0.78548   1.00
H2       -0.01803   0.40179    0.80335   1.00
H2       -0.01830   0.43884    0.76601   1.00
C5       -0.01105   0.24289    0.84084   1.00
C5       -0.11070   0.25325    0.65776   1.00
H2       0.00912    0.22259    0.82552   1.00
H2       -0.03712   0.22613    0.85082   1.00
H2       -0.08300   0.26662    0.64707   1.00
H2       -0.12895   0.27723    0.67032   1.00
H2       -0.19055   0.26062    0.61860   1.00
H2       0.05750    0.21686    0.88242   1.00
H2       0.01234    0.20324    0.90669   1.00
C2       0.10395    0.25234    0.75107   1.00
C3       0.08403    0.21737    0.75990   1.00
O2       0.10326    0.18702    0.77806   1.00
C3       0.08174    0.28541    0.74021   1.00
H1       0.09615    0.31232    0.73230   1.00
C3a      0.04287    0.21649    0.75870   1.00
H1       0.02798    0.19016    0.76769   1.00
C3b      0.04078    0.28478    0.74026   1.00
C4       0.02100    0.25018    0.74962   1.00
O_3      -0.02167   0.27447    0.81666   1.00
C5       0.11280    0.15779    0.75067   1.00
H2       0.08609    0.14592    0.73626   1.00
C5       0.13334    0.12507    0.77309   1.00
H2       0.13274    0.16938    0.72773   1.00
H2       0.11077    0.10702    0.78793   1.00
H2       0.15101    0.13896    0.79657   1.00
C5       0.15931    0.09940    0.74678   1.00
H2       0.14189    0.08829    0.72179   1.00
H2       0.17109    0.07408    0.76340   1.00
H2       0.18506    0.11604    0.73560   1.00
C5       0.00980    0.25962    0.87632   1.00
H2       -0.01218   0.27438    0.89517   1.00
H2       0.03045    0.28257    0.86611   1.00
C5       0.03197    0.22802    0.89929   1.00
H2       0.04334    0.24043    0.92701   1.00
C5       0.63227    0.23330    0.87591   1.00
H2       0.64755    0.20802    0.86261   1.00
H2       0.61099    0.22076    0.89690   1.00
C5       0.66219    0.25935    0.89749   1.00
H2       0.66890    0.24729    0.92690   1.00
H2       0.65040    0.28943    0.90082   1.00
O_3      0.48000    0.31752    0.77115   1.00
C4       0.52100    0.24963    0.74975   1.00
C3c      0.54243    0.23859    0.78288   1.00
H1       0.52725    0.22973    0.80908   1.00
C3d      0.54135    0.26053    0.71573   1.00
C3       0.58354    0.23929    0.78301   1.00
O2       0.60248    0.22359    0.81476   1.00
C3       0.58227    0.26198    0.71600   1.00
H1       0.59657    0.27185    0.68968   1.00
C2       0.60439    0.25131    0.74940   1.00
C5       0.47879    0.34552    0.74095   1.00
H2       0.44838    0.35458    0.73380   1.00
H2       0.49266    0.33409    0.71380   1.00
C5       0.50122    0.38117    0.75480   1.00
H2       0.53129    0.37192    0.76299   1.00
H2       0.48691    0.39255    0.78170   1.00
C5       0.50254    0.41268    0.72304   1.00
H2       0.47260    0.42186    0.71452   1.00
H2       0.51803    0.40179    0.69665   1.00
H2       0.51830    0.43884    0.73399   1.00
C5       0.51105    0.24289    0.65916   1.00
C5       0.61070    0.25325    0.84224   1.00
H2       0.49088    0.22259    0.67448   1.00
H2       0.53712    0.22613    0.64918   1.00
H2       0.58300    0.26662    0.85293   1.00
H2       0.62895    0.27723    0.82968   1.00
H2       0.69055    0.26062    0.88140   1.00
H2       0.44250    0.21686    0.61758   1.00
H2       0.48766    0.20324    0.59331   1.00
C2       0.39605    0.25234    0.74893   1.00
C3       0.41597    0.21737    0.74010   1.00
O2       0.39674    0.18702    0.72194   1.00
C3       0.41826    0.28541    0.75979   1.00
H1       0.40385    0.31232    0.76770   1.00
C3a      0.45713    0.21649    0.74130   1.00
H1       0.47202    0.19016    0.73231   1.00
C3b      0.45922    0.28478    0.75974   1.00
C4       0.47900    0.25018    0.75038   1.00
O_3      0.52167    0.27447    0.68334   1.00
C5       0.38720    0.15779    0.74933   1.00
H2       0.41391    0.14592    0.76374   1.00
C5       0.36666    0.12507    0.72691   1.00
H2       0.36726    0.16938    0.77227   1.00
H2       0.38923    0.10702    0.71207   1.00
H2       0.34899    0.13896    0.70343   1.00
C5       0.34069    0.09940    0.75322   1.00
H2       0.35811    0.08829    0.77821   1.00
H2       0.32891    0.07408    0.73660   1.00
H2       0.31494    0.11604    0.76440   1.00
C5       0.49020    0.25962    0.62368   1.00
H2       0.51218    0.27438    0.60483   1.00
H2       0.46955    0.28257    0.63389   1.00
C5       0.46803    0.22802    0.60071   1.00
H2       0.45666    0.24043    0.57299   1.00
C5       0.12409    -0.13227   0.73330   1.00
H2       0.13739    -0.14755   0.70802   1.00
H2       0.10310    -0.11099   0.72076   1.00
C5       0.10251    -0.16219   0.75935   1.00
H2       0.07310    -0.16890   0.74729   1.00
H2       0.09918    -0.15040   0.78943   1.00
O_3      0.22885    0.02000    0.81752   1.00
C4       0.25025    -0.02100   0.74963   1.00
C3c      0.21712    -0.04243   0.73859   1.00
H1       0.19092    -0.02725   0.72973   1.00
C3d      0.28427    -0.04135   0.76053   1.00
C3       0.21699    -0.08354   0.73929   1.00
O2       0.18524    -0.10248   0.72359   1.00
C3       0.28400    -0.08227   0.76198   1.00
H1       0.31032    -0.09657   0.77185   1.00
C2       0.25060    -0.10439   0.75131   1.00
C5       0.25905    0.02121    0.84552   1.00
H2       0.26620    0.05162    0.85458   1.00
H2       0.28620    0.00734    0.83409   1.00
C5       0.24520    -0.00122   0.88117   1.00
H2       0.23701    -0.03129   0.87192   1.00
H2       0.21830    0.01309    0.89255   1.00
C5       0.27696    -0.00254   0.91268   1.00
H2       0.28548    0.02740    0.92186   1.00
H2       0.30335    -0.01803   0.90179   1.00
H2       0.26601    -0.01830   0.93884   1.00
C5       0.34084    -0.01105   0.74289   1.00
C5       0.15776    -0.11070   0.75325   1.00
H2       0.32552    0.00912    0.72259   1.00
H2       0.35082    -0.03712   0.72613   1.00
H2       0.14707    -0.08300   0.76662   1.00
H2       0.17032    -0.12895   0.77723   1.00
H2       0.11860    -0.19055   0.76062   1.00
H2       0.38242    0.05750    0.71686   1.00
H2       0.40669    0.01234    0.70324   1.00
C2       0.25107    0.10395    0.75234   1.00
C3       0.25990    0.08403    0.71737   1.00
O2       0.27806    0.10326    0.68702   1.00
C3       0.24021    0.08174    0.78541   1.00
H1       0.23230    0.09615    0.81232   1.00
C3a      0.25870    0.04287    0.71649   1.00
H1       0.26769    0.02798    0.69016   1.00
C3b      0.24026    0.04078    0.78478   1.00
C4       0.24962    0.02100    0.75018   1.00
O_3      0.31666    -0.02167   0.77447   1.00
C5       0.25067    0.11280    0.65779   1.00
H2       0.23626    0.08609    0.64592   1.00
C5       0.27309    0.13334    0.62507   1.00
H2       0.22773    0.13274    0.66938   1.00
H2       0.28793    0.11077    0.60702   1.00
H2       0.29657    0.15101    0.63896   1.00
C5       0.24678    0.15931    0.59940   1.00
H2       0.22179    0.14189    0.58829   1.00
H2       0.26340    0.17109    0.57408   1.00
H2       0.23560    0.18506    0.61604   1.00
C5       0.37632    0.00980    0.75962   1.00
H2       0.39517    -0.01218   0.77438   1.00
H2       0.36611    0.03045    0.78257   1.00
C5       0.39929    0.03197    0.72802   1.00
H2       0.42701    0.04334    0.74043   1.00
C5       0.23330    0.12409    0.36773   1.00
H2       0.20802    0.13739    0.35245   1.00
H2       0.22076    0.10310    0.38901   1.00
C5       0.25935    0.10251    0.33781   1.00
H2       0.24729    0.07310    0.33110   1.00
H2       0.28943    0.09918    0.34960   1.00
O_3      0.31752    0.22885    0.52000   1.00
C4       0.24963    0.25025    0.47900   1.00
C3c      0.23859    0.21712    0.45757   1.00
H1       0.22973    0.19092    0.47275   1.00
C3d      0.26053    0.28427    0.45865   1.00
C3       0.23929    0.21699    0.41646   1.00
O2       0.22359    0.18524    0.39752   1.00
C3       0.26198    0.28400    0.41773   1.00
H1       0.27185    0.31032    0.40343   1.00
C2       0.25131    0.25060    0.39561   1.00
C5       0.34552    0.25905    0.52121   1.00
H2       0.35458    0.26620    0.55162   1.00
H2       0.33409    0.28620    0.50734   1.00
C5       0.38117    0.24520    0.49878   1.00
H2       0.37192    0.23701    0.46871   1.00
H2       0.39255    0.21830    0.51309   1.00
C5       0.41268    0.27696    0.49746   1.00
H2       0.42186    0.28548    0.52740   1.00
H2       0.40179    0.30335    0.48197   1.00
H2       0.43884    0.26601    0.48170   1.00
C5       0.24289    0.34084    0.48895   1.00
C5       0.25325    0.15776    0.38930   1.00
H2       0.22259    0.32552    0.50912   1.00
H2       0.22613    0.35082    0.46288   1.00
H2       0.26662    0.14707    0.41700   1.00
H2       0.27723    0.17032    0.37105   1.00
H2       0.26062    0.11860    0.30945   1.00
H2       0.21686    0.38242    0.55750   1.00
H2       0.20324    0.40669    0.51234   1.00
C2       0.25234    0.25107    0.60395   1.00
C3       0.21737    0.25990    0.58403   1.00
O2       0.18702    0.27806    0.60326   1.00
C3       0.28541    0.24021    0.58174   1.00
H1       0.31232    0.23230    0.59615   1.00
C3a      0.21649    0.25870    0.54287   1.00
H1       0.19016    0.26769    0.52798   1.00
C3b      0.28478    0.24026    0.54078   1.00
C4       0.25018    0.24962    0.52100   1.00
O_3      0.27447    0.31666    0.47833   1.00
C5       0.15779    0.25067    0.61280   1.00
H2       0.14592    0.23626    0.58609   1.00
C5       0.12507    0.27309    0.63334   1.00
H2       0.16938    0.22773    0.63274   1.00
H2       0.10702    0.28793    0.61077   1.00
H2       0.13896    0.29657    0.65101   1.00
C5       0.09940    0.24678    0.65931   1.00
H2       0.08829    0.22179    0.64189   1.00
H2       0.07408    0.26340    0.67109   1.00
H2       0.11604    0.23560    0.68506   1.00
C5       0.25962    0.37632    0.50980   1.00
H2       0.27438    0.39517    0.48782   1.00
H2       0.28257    0.36611    0.53045   1.00
C5       0.22802    0.39929    0.53197   1.00
H2       0.24043    0.42701    0.54334   1.00
C5       0.23330    0.87591    0.63227   1.00
H2       0.20802    0.86261    0.64755   1.00
H2       0.22076    0.89690    0.61099   1.00
C5       0.25935    0.89749    0.66219   1.00
H2       0.24729    0.92690    0.66890   1.00
H2       0.28943    0.90082    0.65040   1.00
O_3      0.31752    0.77115    0.48000   1.00
C4       0.24963    0.74975    0.52100   1.00
C3c      0.23859    0.78288    0.54243   1.00
H1       0.22973    0.80908    0.52725   1.00
C3d      0.26053    0.71573    0.54135   1.00
C3       0.23929    0.78301    0.58354   1.00
O2       0.22359    0.81476    0.60248   1.00
C3       0.26198    0.71600    0.58227   1.00
H1       0.27185    0.68968    0.59657   1.00
C2       0.25131    0.74940    0.60439   1.00
C5       0.34552    0.74095    0.47879   1.00
H2       0.35458    0.73380    0.44838   1.00
H2       0.33409    0.71380    0.49266   1.00
C5       0.38117    0.75480    0.50122   1.00
H2       0.37192    0.76299    0.53129   1.00
H2       0.39255    0.78170    0.48691   1.00
C5       0.41268    0.72304    0.50254   1.00
H2       0.42186    0.71452    0.47260   1.00
H2       0.40179    0.69665    0.51803   1.00
H2       0.43884    0.73399    0.51830   1.00
C5       0.24289    0.65916    0.51105   1.00
C5       0.25325    0.84224    0.61070   1.00
H2       0.22259    0.67448    0.49088   1.00
H2       0.22613    0.64918    0.53712   1.00
H2       0.26662    0.85293    0.58300   1.00
H2       0.27723    0.82968    0.62895   1.00
H2       0.26062    0.88140    0.69055   1.00
H2       0.21686    0.61758    0.44250   1.00
H2       0.20324    0.59331    0.48766   1.00
C2       0.25234    0.74893    0.39605   1.00
C3       0.21737    0.74010    0.41597   1.00
O2       0.18702    0.72194    0.39674   1.00
C3       0.28541    0.75979    0.41826   1.00
H1       0.31232    0.76770    0.40385   1.00
C3a      0.21649    0.74130    0.45713   1.00
H1       0.19016    0.73231    0.47202   1.00
C3b      0.28478    0.75974    0.45922   1.00
C4       0.25018    0.75038    0.47900   1.00
O_3      0.27447    0.68334    0.52167   1.00
C5       0.15779    0.74933    0.38720   1.00
H2       0.14592    0.76374    0.41391   1.00
C5       0.12507    0.72691    0.36666   1.00
H2       0.16938    0.77227    0.36726   1.00
H2       0.10702    0.71207    0.38923   1.00
H2       0.13896    0.70343    0.34899   1.00
C5       0.09940    0.75322    0.34069   1.00
H2       0.08829    0.77821    0.35811   1.00
H2       0.07408    0.73660    0.32891   1.00
H2       0.11604    0.76440    0.31494   1.00
C5       0.25962    0.62368    0.49020   1.00
H2       0.27438    0.60483    0.51218   1.00
H2       0.28257    0.63389    0.46955   1.00
C5       0.22802    0.60071    0.46803   1.00
H2       0.24043    0.57299    0.45666   1.00
C5       0.37591    1.13227    0.23330   1.00
H2       0.36261    1.14755    0.20802   1.00
H2       0.39690    1.11099    0.22076   1.00
C5       0.39749    1.16219    0.25935   1.00
H2       0.42690    1.16890    0.24729   1.00
H2       0.40082    1.15040    0.28943   1.00
O_3      0.27115    0.98000    0.31752   1.00
C4       0.24975    1.02100    0.24963   1.00
C3c      0.28288    1.04243    0.23859   1.00
H1       0.30908    1.02725    0.22973   1.00
C3d      0.21573    1.04135    0.26053   1.00
C3       0.28301    1.08354    0.23929   1.00
O2       0.31476    1.10248    0.22359   1.00
C3       0.21600    1.08227    0.26198   1.00
H1       0.18968    1.09657    0.27185   1.00
C2       0.24940    1.10439    0.25131   1.00
C5       0.24095    0.97879    0.34552   1.00
H2       0.23380    0.94838    0.35458   1.00
H2       0.21380    0.99266    0.33409   1.00
C5       0.25480    1.00122    0.38117   1.00
H2       0.26299    1.03129    0.37192   1.00
H2       0.28170    0.98691    0.39255   1.00
C5       0.22304    1.00254    0.41268   1.00
H2       0.21452    0.97260    0.42186   1.00
H2       0.19665    1.01803    0.40179   1.00
H2       0.23399    1.01830    0.43884   1.00
C5       0.15916    1.01105    0.24289   1.00
C5       0.34224    1.11070    0.25325   1.00
H2       0.17448    0.99088    0.22259   1.00
H2       0.14918    1.03712    0.22613   1.00
H2       0.35293    1.08300    0.26662   1.00
H2       0.32968    1.12895    0.27723   1.00
H2       0.38140    1.19055    0.26062   1.00
H2       0.11758    0.94250    0.21686   1.00
H2       0.09331    0.98766    0.20324   1.00
C2       0.24893    0.89605    0.25234   1.00
C3       0.24010    0.91597    0.21737   1.00
O2       0.22194    0.89674    0.18702   1.00
C3       0.25979    0.91826    0.28541   1.00
H1       0.26770    0.90385    0.31232   1.00
C3a      0.24130    0.95713    0.21649   1.00
H1       0.23231    0.97202    0.19016   1.00
C3b      0.25974    0.95922    0.28478   1.00
C4       0.25038    0.97900    0.25018   1.00
O_3      0.18334    1.02167    0.27447   1.00
C5       0.24933    0.88720    0.15779   1.00
H2       0.26374    0.91391    0.14592   1.00
C5       0.22691    0.86666    0.12507   1.00
H2       0.27227    0.86726    0.16938   1.00
H2       0.21207    0.88923    0.10702   1.00
H2       0.20343    0.84899    0.13896   1.00
C5       0.25322    0.84069    0.09940   1.00
H2       0.27821    0.85811    0.08829   1.00
H2       0.23660    0.82891    0.07408   1.00
H2       0.26440    0.81494    0.11604   1.00
C5       0.12368    0.99020    0.25962   1.00
H2       0.10483    1.01218    0.27438   1.00
H2       0.13389    0.96955    0.28257   1.00
C5       0.10071    0.96803    0.22802   1.00
H2       0.07299    0.95666    0.24043   1.00
C5       -0.13227   0.73330    0.12409   1.00
H2       -0.14755   0.70802    0.13739   1.00
H2       -0.11099   0.72076    0.10310   1.00
C5       -0.16219   0.75935    0.10251   1.00
H2       -0.16890   0.74729    0.07310   1.00
H2       -0.15040   0.78943    0.09918   1.00
O_3      0.02000    0.81752    0.22885   1.00
C4       -0.02100   0.74963    0.25025   1.00
C3c      -0.04243   0.73859    0.21712   1.00
H1       -0.02725   0.72973    0.19092   1.00
C3d      -0.04135   0.76053    0.28427   1.00
C3       -0.08354   0.73929    0.21699   1.00
O2       -0.10248   0.72359    0.18524   1.00
C3       -0.08227   0.76198    0.28400   1.00
H1       -0.09657   0.77185    0.31032   1.00
C2       -0.10439   0.75131    0.25060   1.00
C5       0.02121    0.84552    0.25905   1.00
H2       0.05162    0.85458    0.26620   1.00
H2       0.00734    0.83409    0.28620   1.00
C5       -0.00122   0.88117    0.24520   1.00
H2       -0.03129   0.87192    0.23701   1.00
H2       0.01309    0.89255    0.21830   1.00
C5       -0.00254   0.91268    0.27696   1.00
H2       0.02740    0.92186    0.28548   1.00
H2       -0.01803   0.90179    0.30335   1.00
H2       -0.01830   0.93884    0.26601   1.00
C5       -0.01105   0.74289    0.34084   1.00
C5       -0.11070   0.75325    0.15776   1.00
H2       0.00912    0.72259    0.32552   1.00
H2       -0.03712   0.72613    0.35082   1.00
H2       -0.08300   0.76662    0.14707   1.00
H2       -0.12895   0.77723    0.17032   1.00
H2       -0.19055   0.76062    0.11860   1.00
H2       0.05750    0.71686    0.38242   1.00
H2       0.01234    0.70324    0.40669   1.00
C2       0.10395    0.75234    0.25107   1.00
C3       0.08403    0.71737    0.25990   1.00
O2       0.10326    0.68702    0.27806   1.00
C3       0.08174    0.78541    0.24021   1.00
H1       0.09615    0.81232    0.23230   1.00
C3a      0.04287    0.71649    0.25870   1.00
H1       0.02798    0.69016    0.26769   1.00
C3b      0.04078    0.78478    0.24026   1.00
C4       0.02100    0.75018    0.24962   1.00
O_3      -0.02167   0.77447    0.31666   1.00
C5       0.11280    0.65779    0.25067   1.00
H2       0.08609    0.64592    0.23626   1.00
C5       0.13334    0.62507    0.27309   1.00
H2       0.13274    0.66938    0.22773   1.00
H2       0.11077    0.60702    0.28793   1.00
H2       0.15101    0.63896    0.29657   1.00
C5       0.15931    0.59940    0.24678   1.00
H2       0.14189    0.58829    0.22179   1.00
H2       0.17109    0.57408    0.26340   1.00
H2       0.18506    0.61604    0.23560   1.00
C5       0.00980    0.75962    0.37632   1.00
H2       -0.01218   0.77438    0.39517   1.00
H2       0.03045    0.78257    0.36611   1.00
C5       0.03197    0.72802    0.39929   1.00
H2       0.04334    0.74043    0.42701   1.00
C5       0.63227    0.73330    0.37591   1.00
H2       0.64755    0.70802    0.36261   1.00
H2       0.61099    0.72076    0.39690   1.00
C5       0.66219    0.75935    0.39749   1.00
H2       0.66890    0.74729    0.42690   1.00
H2       0.65040    0.78943    0.40082   1.00
O_3      0.48000    0.81752    0.27115   1.00
C4       0.52100    0.74963    0.24975   1.00
C3c      0.54243    0.73859    0.28288   1.00
H1       0.52725    0.72973    0.30908   1.00
C3d      0.54135    0.76053    0.21573   1.00
C3       0.58354    0.73929    0.28301   1.00
O2       0.60248    0.72359    0.31476   1.00
C3       0.58227    0.76198    0.21600   1.00
H1       0.59657    0.77185    0.18968   1.00
C2       0.60439    0.75131    0.24940   1.00
C5       0.47879    0.84552    0.24095   1.00
H2       0.44838    0.85458    0.23380   1.00
H2       0.49266    0.83409    0.21380   1.00
C5       0.50122    0.88117    0.25480   1.00
H2       0.53129    0.87192    0.26299   1.00
H2       0.48691    0.89255    0.28170   1.00
C5       0.50254    0.91268    0.22304   1.00
H2       0.47260    0.92186    0.21452   1.00
H2       0.51803    0.90179    0.19665   1.00
H2       0.51830    0.93884    0.23399   1.00
C5       0.51105    0.74289    0.15916   1.00
C5       0.61070    0.75325    0.34224   1.00
H2       0.49088    0.72259    0.17448   1.00
H2       0.53712    0.72613    0.14918   1.00
H2       0.58300    0.76662    0.35293   1.00
H2       0.62895    0.77723    0.32968   1.00
H2       0.69055    0.76062    0.38140   1.00
H2       0.44250    0.71686    0.11758   1.00
H2       0.48766    0.70324    0.09331   1.00
C2       0.39605    0.75234    0.24893   1.00
C3       0.41597    0.71737    0.24010   1.00
O2       0.39674    0.68702    0.22194   1.00
C3       0.41826    0.78541    0.25979   1.00
H1       0.40385    0.81232    0.26770   1.00
C3a      0.45713    0.71649    0.24130   1.00
H1       0.47202    0.69016    0.23231   1.00
C3b      0.45922    0.78478    0.25974   1.00
C4       0.47900    0.75018    0.25038   1.00
O_3      0.52167    0.77447    0.18334   1.00
C5       0.38720    0.65779    0.24933   1.00
H2       0.41391    0.64592    0.26374   1.00
C5       0.36666    0.62507    0.22691   1.00
H2       0.36726    0.66938    0.27227   1.00
H2       0.38923    0.60702    0.21207   1.00
H2       0.34899    0.63896    0.20343   1.00
C5       0.34069    0.59940    0.25322   1.00
H2       0.35811    0.58829    0.27821   1.00
H2       0.32891    0.57408    0.23660   1.00
H2       0.31494    0.61604    0.26440   1.00
C5       0.49020    0.75962    0.12368   1.00
H2       0.51218    0.77438    0.10483   1.00
H2       0.46955    0.78257    0.13389   1.00
C5       0.46803    0.72802    0.10071   1.00
H2       0.45666    0.74043    0.07299   1.00
C5       0.12409    0.36773    0.23330   1.00
H2       0.13739    0.35245    0.20802   1.00
H2       0.10310    0.38901    0.22076   1.00
C5       0.10251    0.33781    0.25935   1.00
H2       0.07310    0.33110    0.24729   1.00
H2       0.09918    0.34960    0.28943   1.00
O_3      0.22885    0.52000    0.31752   1.00
C4       0.25025    0.47900    0.24963   1.00
C3c      0.21712    0.45757    0.23859   1.00
H1       0.19092    0.47275    0.22973   1.00
C3d      0.28427    0.45865    0.26053   1.00
C3       0.21699    0.41646    0.23929   1.00
O2       0.18524    0.39752    0.22359   1.00
C3       0.28400    0.41773    0.26198   1.00
H1       0.31032    0.40343    0.27185   1.00
C2       0.25060    0.39561    0.25131   1.00
C5       0.25905    0.52121    0.34552   1.00
H2       0.26620    0.55162    0.35458   1.00
H2       0.28620    0.50734    0.33409   1.00
C5       0.24520    0.49878    0.38117   1.00
H2       0.23701    0.46871    0.37192   1.00
H2       0.21830    0.51309    0.39255   1.00
C5       0.27696    0.49746    0.41268   1.00
H2       0.28548    0.52740    0.42186   1.00
H2       0.30335    0.48197    0.40179   1.00
H2       0.26601    0.48170    0.43884   1.00
C5       0.34084    0.48895    0.24289   1.00
C5       0.15776    0.38930    0.25325   1.00
H2       0.32552    0.50912    0.22259   1.00
H2       0.35082    0.46288    0.22613   1.00
H2       0.14707    0.41700    0.26662   1.00
H2       0.17032    0.37105    0.27723   1.00
H2       0.11860    0.30945    0.26062   1.00
H2       0.38242    0.55750    0.21686   1.00
H2       0.40669    0.51234    0.20324   1.00
C2       0.25107    0.60395    0.25234   1.00
C3       0.25990    0.58403    0.21737   1.00
O2       0.27806    0.60326    0.18702   1.00
C3       0.24021    0.58174    0.28541   1.00
H1       0.23230    0.59615    0.31232   1.00
C3a      0.25870    0.54287    0.21649   1.00
H1       0.26769    0.52798    0.19016   1.00
C3b      0.24026    0.54078    0.28478   1.00
C4       0.24962    0.52100    0.25018   1.00
O_3      0.31666    0.47833    0.27447   1.00
C5       0.25067    0.61280    0.15779   1.00
H2       0.23626    0.58609    0.14592   1.00
C5       0.27309    0.63334    0.12507   1.00
H2       0.22773    0.63274    0.16938   1.00
H2       0.28793    0.61077    0.10702   1.00
H2       0.29657    0.65101    0.13896   1.00
C5       0.24678    0.65931    0.09940   1.00
H2       0.22179    0.64189    0.08829   1.00
H2       0.26340    0.67109    0.07408   1.00
H2       0.23560    0.68506    0.11604   1.00
C5       0.37632    0.50980    0.25962   1.00
H2       0.39517    0.48782    0.27438   1.00
H2       0.36611    0.53045    0.28257   1.00
C5       0.39929    0.53197    0.22802   1.00
H2       0.42701    0.54334    0.24043   1.00
C5       0.23330    0.62409    -0.13227   1.00
H2       0.20802    0.63739    -0.14755   1.00
H2       0.22076    0.60310    -0.11099   1.00
C5       0.25935    0.60251    -0.16219   1.00
H2       0.24729    0.57310    -0.16890   1.00
H2       0.28943    0.59918    -0.15040   1.00
O_3      0.31752    0.72885    0.02000   1.00
C4       0.24963    0.75025    -0.02100   1.00
C3c      0.23859    0.71712    -0.04243   1.00
H1       0.22973    0.69092    -0.02725   1.00
C3d      0.26053    0.78427    -0.04135   1.00
C3       0.23929    0.71699    -0.08354   1.00
O2       0.22359    0.68524    -0.10248   1.00
C3       0.26198    0.78400    -0.08227   1.00
H1       0.27185    0.81032    -0.09657   1.00
C2       0.25131    0.75060    -0.10439   1.00
C5       0.34552    0.75905    0.02121   1.00
H2       0.35458    0.76620    0.05162   1.00
H2       0.33409    0.78620    0.00734   1.00
C5       0.38117    0.74520    -0.00122   1.00
H2       0.37192    0.73701    -0.03129   1.00
H2       0.39255    0.71830    0.01309   1.00
C5       0.41268    0.77696    -0.00254   1.00
H2       0.42186    0.78548    0.02740   1.00
H2       0.40179    0.80335    -0.01803   1.00
H2       0.43884    0.76601    -0.01830   1.00
C5       0.24289    0.84084    -0.01105   1.00
C5       0.25325    0.65776    -0.11070   1.00
H2       0.22259    0.82552    0.00912   1.00
H2       0.22613    0.85082    -0.03712   1.00
H2       0.26662    0.64707    -0.08300   1.00
H2       0.27723    0.67032    -0.12895   1.00
H2       0.26062    0.61860    -0.19055   1.00
H2       0.21686    0.88242    0.05750   1.00
H2       0.20324    0.90669    0.01234   1.00
C2       0.25234    0.75107    0.10395   1.00
C3       0.21737    0.75990    0.08403   1.00
O2       0.18702    0.77806    0.10326   1.00
C3       0.28541    0.74021    0.08174   1.00
H1       0.31232    0.73230    0.09615   1.00
C3a      0.21649    0.75870    0.04287   1.00
H1       0.19016    0.76769    0.02798   1.00
C3b      0.28478    0.74026    0.04078   1.00
C4       0.25018    0.74962    0.02100   1.00
O_3      0.27447    0.81666    -0.02167   1.00
C5       0.15779    0.75067    0.11280   1.00
H2       0.14592    0.73626    0.08609   1.00
C5       0.12507    0.77309    0.13334   1.00
H2       0.16938    0.72773    0.13274   1.00
H2       0.10702    0.78793    0.11077   1.00
H2       0.13896    0.79657    0.15101   1.00
C5       0.09940    0.74678    0.15931   1.00
H2       0.08829    0.72179    0.14189   1.00
H2       0.07408    0.76340    0.17109   1.00
H2       0.11604    0.73560    0.18506   1.00
C5       0.25962    0.87632    0.00980   1.00
H2       0.27438    0.89517    -0.01218   1.00
H2       0.28257    0.86611    0.03045   1.00
C5       0.22802    0.89929    0.03197   1.00
H2       0.24043    0.92701    0.04334   1.00
C5       0.73330    0.37591    0.63227   1.00
H2       0.70802    0.36261    0.64755   1.00
H2       0.72076    0.39690    0.61099   1.00
C5       0.75935    0.39749    0.66219   1.00
H2       0.74729    0.42690    0.66890   1.00
H2       0.78943    0.40082    0.65040   1.00
O_3      0.81752    0.27115    0.48000   1.00
C4       0.74963    0.24975    0.52100   1.00
C3c      0.73859    0.28288    0.54243   1.00
H1       0.72973    0.30908    0.52725   1.00
C3d      0.76053    0.21573    0.54135   1.00
C3       0.73929    0.28301    0.58354   1.00
O2       0.72359    0.31476    0.60248   1.00
C3       0.76198    0.21600    0.58227   1.00
H1       0.77185    0.18968    0.59657   1.00
C2       0.75131    0.24940    0.60439   1.00
C5       0.84552    0.24095    0.47879   1.00
H2       0.85458    0.23380    0.44838   1.00
H2       0.83409    0.21380    0.49266   1.00
C5       0.88117    0.25480    0.50122   1.00
H2       0.87192    0.26299    0.53129   1.00
H2       0.89255    0.28170    0.48691   1.00
C5       0.91268    0.22304    0.50254   1.00
H2       0.92186    0.21452    0.47260   1.00
H2       0.90179    0.19665    0.51803   1.00
H2       0.93884    0.23399    0.51830   1.00
C5       0.74289    0.15916    0.51105   1.00
C5       0.75325    0.34224    0.61070   1.00
H2       0.72259    0.17448    0.49088   1.00
H2       0.72613    0.14918    0.53712   1.00
H2       0.76662    0.35293    0.58300   1.00
H2       0.77723    0.32968    0.62895   1.00
H2       0.76062    0.38140    0.69055   1.00
H2       0.71686    0.11758    0.44250   1.00
H2       0.70324    0.09331    0.48766   1.00
C2       0.75234    0.24893    0.39605   1.00
C3       0.71737    0.24010    0.41597   1.00
O2       0.68702    0.22194    0.39674   1.00
C3       0.78541    0.25979    0.41826   1.00
H1       0.81232    0.26770    0.40385   1.00
C3a      0.71649    0.24130    0.45713   1.00
H1       0.69016    0.23231    0.47202   1.00
C3b      0.78478    0.25974    0.45922   1.00
C4       0.75018    0.25038    0.47900   1.00
O_3      0.77447    0.18334    0.52167   1.00
C5       0.65779    0.24933    0.38720   1.00
H2       0.64592    0.26374    0.41391   1.00
C5       0.62507    0.22691    0.36666   1.00
H2       0.66938    0.27227    0.36726   1.00
H2       0.60702    0.21207    0.38923   1.00
H2       0.63896    0.20343    0.34899   1.00
C5       0.59940    0.25322    0.34069   1.00
H2       0.58829    0.27821    0.35811   1.00
H2       0.57408    0.23660    0.32891   1.00
H2       0.61604    0.26440    0.31494   1.00
C5       0.75962    0.12368    0.49020   1.00
H2       0.77438    0.10483    0.51218   1.00
H2       0.78257    0.13389    0.46955   1.00
C5       0.72802    0.10071    0.46803   1.00
H2       0.74043    0.07299    0.45666   1.00
C5       0.87591    0.63227    0.23330   1.00
H2       0.86261    0.64755    0.20802   1.00
H2       0.89690    0.61099    0.22076   1.00
C5       0.89749    0.66219    0.25935   1.00
H2       0.92690    0.66890    0.24729   1.00
H2       0.90082    0.65040    0.28943   1.00
O_3      0.77115    0.48000    0.31752   1.00
C4       0.74975    0.52100    0.24963   1.00
C3c      0.78288    0.54243    0.23859   1.00
H1       0.80908    0.52725    0.22973   1.00
C3d      0.71573    0.54135    0.26053   1.00
C3       0.78301    0.58354    0.23929   1.00
O2       0.81476    0.60248    0.22359   1.00
C3       0.71600    0.58227    0.26198   1.00
H1       0.68968    0.59657    0.27185   1.00
C2       0.74940    0.60439    0.25131   1.00
C5       0.74095    0.47879    0.34552   1.00
H2       0.73380    0.44838    0.35458   1.00
H2       0.71380    0.49266    0.33409   1.00
C5       0.75480    0.50122    0.38117   1.00
H2       0.76299    0.53129    0.37192   1.00
H2       0.78170    0.48691    0.39255   1.00
C5       0.72304    0.50254    0.41268   1.00
H2       0.71452    0.47260    0.42186   1.00
H2       0.69665    0.51803    0.40179   1.00
H2       0.73399    0.51830    0.43884   1.00
C5       0.65916    0.51105    0.24289   1.00
C5       0.84224    0.61070    0.25325   1.00
H2       0.67448    0.49088    0.22259   1.00
H2       0.64918    0.53712    0.22613   1.00
H2       0.85293    0.58300    0.26662   1.00
H2       0.82968    0.62895    0.27723   1.00
H2       0.88140    0.69055    0.26062   1.00
H2       0.61758    0.44250    0.21686   1.00
H2       0.59331    0.48766    0.20324   1.00
C2       0.74893    0.39605    0.25234   1.00
C3       0.74010    0.41597    0.21737   1.00
O2       0.72194    0.39674    0.18702   1.00
C3       0.75979    0.41826    0.28541   1.00
H1       0.76770    0.40385    0.31232   1.00
C3a      0.74130    0.45713    0.21649   1.00
H1       0.73231    0.47202    0.19016   1.00
C3b      0.75974    0.45922    0.28478   1.00
C4       0.75038    0.47900    0.25018   1.00
O_3      0.68334    0.52167    0.27447   1.00
C5       0.74933    0.38720    0.15779   1.00
H2       0.76374    0.41391    0.14592   1.00
C5       0.72691    0.36666    0.12507   1.00
H2       0.77227    0.36726    0.16938   1.00
H2       0.71207    0.38923    0.10702   1.00
H2       0.70343    0.34899    0.13896   1.00
C5       0.75322    0.34069    0.09940   1.00
H2       0.77821    0.35811    0.08829   1.00
H2       0.73660    0.32891    0.07408   1.00
H2       0.76440    0.31494    0.11604   1.00
C5       0.62368    0.49020    0.25962   1.00
H2       0.60483    0.51218    0.27438   1.00
H2       0.63389    0.46955    0.28257   1.00
C5       0.60071    0.46803    0.22802   1.00
H2       0.57299    0.45666    0.24043   1.00
C5       0.36773    0.23330    0.12409   1.00
H2       0.35245    0.20802    0.13739   1.00
H2       0.38901    0.22076    0.10310   1.00
C5       0.33781    0.25935    0.10251   1.00
H2       0.33110    0.24729    0.07310   1.00
H2       0.34960    0.28943    0.09918   1.00
O_3      0.52000    0.31752    0.22885   1.00
C4       0.47900    0.24963    0.25025   1.00
C3c      0.45757    0.23859    0.21712   1.00
H1       0.47275    0.22973    0.19092   1.00
C3d      0.45865    0.26053    0.28427   1.00
C3       0.41646    0.23929    0.21699   1.00
O2       0.39752    0.22359    0.18524   1.00
C3       0.41773    0.26198    0.28400   1.00
H1       0.40343    0.27185    0.31032   1.00
C2       0.39561    0.25131    0.25060   1.00
C5       0.52121    0.34552    0.25905   1.00
H2       0.55162    0.35458    0.26620   1.00
H2       0.50734    0.33409    0.28620   1.00
C5       0.49878    0.38117    0.24520   1.00
H2       0.46871    0.37192    0.23701   1.00
H2       0.51309    0.39255    0.21830   1.00
C5       0.49746    0.41268    0.27696   1.00
H2       0.52740    0.42186    0.28548   1.00
H2       0.48197    0.40179    0.30335   1.00
H2       0.48170    0.43884    0.26601   1.00
C5       0.48895    0.24289    0.34084   1.00
C5       0.38930    0.25325    0.15776   1.00
H2       0.50912    0.22259    0.32552   1.00
H2       0.46288    0.22613    0.35082   1.00
H2       0.41700    0.26662    0.14707   1.00
H2       0.37105    0.27723    0.17032   1.00
H2       0.30945    0.26062    0.11860   1.00
H2       0.55750    0.21686    0.38242   1.00
H2       0.51234    0.20324    0.40669   1.00
C2       0.60395    0.25234    0.25107   1.00
C3       0.58403    0.21737    0.25990   1.00
O2       0.60326    0.18702    0.27806   1.00
C3       0.58174    0.28541    0.24021   1.00
H1       0.59615    0.31232    0.23230   1.00
C3a      0.54287    0.21649    0.25870   1.00
H1       0.52798    0.19016    0.26769   1.00
C3b      0.54078    0.28478    0.24026   1.00
C4       0.52100    0.25018    0.24962   1.00
O_3      0.47833    0.27447    0.31666   1.00
C5       0.61280    0.15779    0.25067   1.00
H2       0.58609    0.14592    0.23626   1.00
C5       0.63334    0.12507    0.27309   1.00
H2       0.63274    0.16938    0.22773   1.00
H2       0.61077    0.10702    0.28793   1.00
H2       0.65101    0.13896    0.29657   1.00
C5       0.65931    0.09940    0.24678   1.00
H2       0.64189    0.08829    0.22179   1.00
H2       0.67109    0.07408    0.26340   1.00
H2       0.68506    0.11604    0.23560   1.00
C5       0.50980    0.25962    0.37632   1.00
H2       0.48782    0.27438    0.39517   1.00
H2       0.53045    0.28257    0.36611   1.00
C5       0.53197    0.22802    0.39929   1.00
H2       0.54334    0.24043    0.42701   1.00
C5       1.13227    0.23330    0.37591   1.00
H2       1.14755    0.20802    0.36261   1.00
H2       1.11099    0.22076    0.39690   1.00
C5       1.16219    0.25935    0.39749   1.00
H2       1.16890    0.24729    0.42690   1.00
H2       1.15040    0.28943    0.40082   1.00
O_3      0.98000    0.31752    0.27115   1.00
C4       1.02100    0.24963    0.24975   1.00
C3c      1.04243    0.23859    0.28288   1.00
H1       1.02725    0.22973    0.30908   1.00
C3d      1.04135    0.26053    0.21573   1.00
C3       1.08354    0.23929    0.28301   1.00
O2       1.10248    0.22359    0.31476   1.00
C3       1.08227    0.26198    0.21600   1.00
H1       1.09657    0.27185    0.18968   1.00
C2       1.10439    0.25131    0.24940   1.00
C5       0.97879    0.34552    0.24095   1.00
H2       0.94838    0.35458    0.23380   1.00
H2       0.99266    0.33409    0.21380   1.00
C5       1.00122    0.38117    0.25480   1.00
H2       1.03129    0.37192    0.26299   1.00
H2       0.98691    0.39255    0.28170   1.00
C5       1.00254    0.41268    0.22304   1.00
H2       0.97260    0.42186    0.21452   1.00
H2       1.01803    0.40179    0.19665   1.00
H2       1.01830    0.43884    0.23399   1.00
C5       1.01105    0.24289    0.15916   1.00
C5       1.11070    0.25325    0.34224   1.00
H2       0.99088    0.22259    0.17448   1.00
H2       1.03712    0.22613    0.14918   1.00
H2       1.08300    0.26662    0.35293   1.00
H2       1.12895    0.27723    0.32968   1.00
H2       1.19055    0.26062    0.38140   1.00
H2       0.94250    0.21686    0.11758   1.00
H2       0.98766    0.20324    0.09331   1.00
C2       0.89605    0.25234    0.24893   1.00
C3       0.91597    0.21737    0.24010   1.00
O2       0.89674    0.18702    0.22194   1.00
C3       0.91826    0.28541    0.25979   1.00
H1       0.90385    0.31232    0.26770   1.00
C3a      0.95713    0.21649    0.24130   1.00
H1       0.97202    0.19016    0.23231   1.00
C3b      0.95922    0.28478    0.25974   1.00
C4       0.97900    0.25018    0.25038   1.00
O_3      1.02167    0.27447    0.18334   1.00
C5       0.88720    0.15779    0.24933   1.00
H2       0.91391    0.14592    0.26374   1.00
C5       0.86666    0.12507    0.22691   1.00
H2       0.86726    0.16938    0.27227   1.00
H2       0.88923    0.10702    0.21207   1.00
H2       0.84899    0.13896    0.20343   1.00
C5       0.84069    0.09940    0.25322   1.00
H2       0.85811    0.08829    0.27821   1.00
H2       0.82891    0.07408    0.23660   1.00
H2       0.81494    0.11604    0.26440   1.00
C5       0.99020    0.25962    0.12368   1.00
H2       1.01218    0.27438    0.10483   1.00
H2       0.96955    0.28257    0.13389   1.00
C5       0.96803    0.22802    0.10071   1.00
H2       0.95666    0.24043    0.07299   1.00
C5       0.62409    -0.13227   0.23330   1.00
H2       0.63739    -0.14755   0.20802   1.00
H2       0.60310    -0.11099   0.22076   1.00
C5       0.60251    -0.16219   0.25935   1.00
H2       0.57310    -0.16890   0.24729   1.00
H2       0.59918    -0.15040   0.28943   1.00
O_3      0.72885    0.02000    0.31752   1.00
C4       0.75025    -0.02100   0.24963   1.00
C3c      0.71712    -0.04243   0.23859   1.00
H1       0.69092    -0.02725   0.22973   1.00
C3d      0.78427    -0.04135   0.26053   1.00
C3       0.71699    -0.08354   0.23929   1.00
O2       0.68524    -0.10248   0.22359   1.00
C3       0.78400    -0.08227   0.26198   1.00
H1       0.81032    -0.09657   0.27185   1.00
C2       0.75060    -0.10439   0.25131   1.00
C5       0.75905    0.02121    0.34552   1.00
H2       0.76620    0.05162    0.35458   1.00
H2       0.78620    0.00734    0.33409   1.00
C5       0.74520    -0.00122   0.38117   1.00
H2       0.73701    -0.03129   0.37192   1.00
H2       0.71830    0.01309    0.39255   1.00
C5       0.77696    -0.00254   0.41268   1.00
H2       0.78548    0.02740    0.42186   1.00
H2       0.80335    -0.01803   0.40179   1.00
H2       0.76601    -0.01830   0.43884   1.00
C5       0.84084    -0.01105   0.24289   1.00
C5       0.65776    -0.11070   0.25325   1.00
H2       0.82552    0.00912    0.22259   1.00
H2       0.85082    -0.03712   0.22613   1.00
H2       0.64707    -0.08300   0.26662   1.00
H2       0.67032    -0.12895   0.27723   1.00
H2       0.61860    -0.19055   0.26062   1.00
H2       0.88242    0.05750    0.21686   1.00
H2       0.90669    0.01234    0.20324   1.00
C2       0.75107    0.10395    0.25234   1.00
C3       0.75990    0.08403    0.21737   1.00
O2       0.77806    0.10326    0.18702   1.00
C3       0.74021    0.08174    0.28541   1.00
H1       0.73230    0.09615    0.31232   1.00
C3a      0.75870    0.04287    0.21649   1.00
H1       0.76769    0.02798    0.19016   1.00
C3b      0.74026    0.04078    0.28478   1.00
C4       0.74962    0.02100    0.25018   1.00
O_3      0.81666    -0.02167   0.27447   1.00
C5       0.75067    0.11280    0.15779   1.00
H2       0.73626    0.08609    0.14592   1.00
C5       0.77309    0.13334    0.12507   1.00
H2       0.72773    0.13274    0.16938   1.00
H2       0.78793    0.11077    0.10702   1.00
H2       0.79657    0.15101    0.13896   1.00
C5       0.74678    0.15931    0.09940   1.00
H2       0.72179    0.14189    0.08829   1.00
H2       0.76340    0.17109    0.07408   1.00
H2       0.73560    0.18506    0.11604   1.00
C5       0.87632    0.00980    0.25962   1.00
H2       0.89517    -0.01218   0.27438   1.00
H2       0.86611    0.03045    0.28257   1.00
C5       0.89929    0.03197    0.22802   1.00
H2       0.92701    0.04334    0.24043   1.00
C5       0.73330    0.12409    -0.13227   1.00
H2       0.70802    0.13739    -0.14755   1.00
H2       0.72076    0.10310    -0.11099   1.00
C5       0.75935    0.10251    -0.16219   1.00
H2       0.74729    0.07310    -0.16890   1.00
H2       0.78943    0.09918    -0.15040   1.00
O_3      0.81752    0.22885    0.02000   1.00
C4       0.74963    0.25025    -0.02100   1.00
C3c      0.73859    0.21712    -0.04243   1.00
H1       0.72973    0.19092    -0.02725   1.00
C3d      0.76053    0.28427    -0.04135   1.00
C3       0.73929    0.21699    -0.08354   1.00
O2       0.72359    0.18524    -0.10248   1.00
C3       0.76198    0.28400    -0.08227   1.00
H1       0.77185    0.31032    -0.09657   1.00
C2       0.75131    0.25060    -0.10439   1.00
C5       0.84552    0.25905    0.02121   1.00
H2       0.85458    0.26620    0.05162   1.00
H2       0.83409    0.28620    0.00734   1.00
C5       0.88117    0.24520    -0.00122   1.00
H2       0.87192    0.23701    -0.03129   1.00
H2       0.89255    0.21830    0.01309   1.00
C5       0.91268    0.27696    -0.00254   1.00
H2       0.92186    0.28548    0.02740   1.00
H2       0.90179    0.30335    -0.01803   1.00
H2       0.93884    0.26601    -0.01830   1.00
C5       0.74289    0.34084    -0.01105   1.00
C5       0.75325    0.15776    -0.11070   1.00
H2       0.72259    0.32552    0.00912   1.00
H2       0.72613    0.35082    -0.03712   1.00
H2       0.76662    0.14707    -0.08300   1.00
H2       0.77723    0.17032    -0.12895   1.00
H2       0.76062    0.11860    -0.19055   1.00
H2       0.71686    0.38242    0.05750   1.00
H2       0.70324    0.40669    0.01234   1.00
C2       0.75234    0.25107    0.10395   1.00
C3       0.71737    0.25990    0.08403   1.00
O2       0.68702    0.27806    0.10326   1.00
C3       0.78541    0.24021    0.08174   1.00
H1       0.81232    0.23230    0.09615   1.00
C3a      0.71649    0.25870    0.04287   1.00
H1       0.69016    0.26769    0.02798   1.00
C3b      0.78478    0.24026    0.04078   1.00
C4       0.75018    0.24962    0.02100   1.00
O_3      0.77447    0.31666    -0.02167   1.00
C5       0.65779    0.25067    0.11280   1.00
H2       0.64592    0.23626    0.08609   1.00
C5       0.62507    0.27309    0.13334   1.00
H2       0.66938    0.22773    0.13274   1.00
H2       0.60702    0.28793    0.11077   1.00
H2       0.63896    0.29657    0.15101   1.00
C5       0.59940    0.24678    0.15931   1.00
H2       0.58829    0.22179    0.14189   1.00
H2       0.57408    0.26340    0.17109   1.00
H2       0.61604    0.23560    0.18506   1.00
C5       0.75962    0.37632    0.00980   1.00
H2       0.77438    0.39517    -0.01218   1.00
H2       0.78257    0.36611    0.03045   1.00
C5       0.72802    0.39929    0.03197   1.00
H2       0.74043    0.42701    0.04334   1.00
C5       0.89830    1.04091    1.29727   1.00
H2       0.87302    1.02761    1.31255   1.00
H2       0.88576    1.06190    1.27599   1.00
C5       0.92435    1.06249    1.32719   1.00
H2       0.91229    1.09190    1.33390   1.00
H2       0.95443    1.06582    1.31540   1.00
O_3      0.98252    0.93615    1.14500   1.00
C4       0.91463    0.91475    1.18600   1.00
C3c      0.90359    0.94788    1.20743   1.00
H1       0.89473    0.97408    1.19225   1.00
C3d      0.92553    0.88073    1.20635   1.00
C3       0.90429    0.94801    1.24854   1.00
O2       0.88859    0.97976    1.26748   1.00
C3       0.92698    0.88100    1.24727   1.00
H1       0.93685    0.85468    1.26157   1.00
C2       0.91631    0.91440    1.26939   1.00
C5       1.01052    0.90595    1.14379   1.00
H2       1.01958    0.89880    1.11338   1.00
H2       0.99909    0.87880    1.15766   1.00
C5       1.04617    0.91980    1.16622   1.00
H2       1.03692    0.92799    1.19629   1.00
H2       1.05755    0.94670    1.15191   1.00
C5       1.07768    0.88804    1.16754   1.00
H2       1.08686    0.87952    1.13760   1.00
H2       1.06679    0.86165    1.18303   1.00
H2       1.10384    0.89899    1.18330   1.00
C5       0.90789    0.82416    1.17605   1.00
C5       0.91825    1.00724    1.27570   1.00
H2       0.88759    0.83948    1.15588   1.00
H2       0.89113    0.81418    1.20212   1.00
H2       0.93162    1.01793    1.24800   1.00
H2       0.94223    0.99468    1.29395   1.00
H2       0.92562    1.04640    1.35555   1.00
H2       0.88186    0.78258    1.10750   1.00
H2       0.86824    0.75831    1.15266   1.00
C2       0.91734    0.91393    1.06105   1.00
C3       0.88237    0.90510    1.08097   1.00
O2       0.85202    0.88694    1.06174   1.00
C3       0.95041    0.92479    1.08326   1.00
H1       0.97732    0.93270    1.06885   1.00
C3a      0.88149    0.90630    1.12213   1.00
H1       0.85516    0.89731    1.13702   1.00
C3b      0.94978    0.92474    1.12422   1.00
C4       0.91518    0.91538    1.14400   1.00
O_3      0.93947    0.84834    1.18667   1.00
C5       0.82279    0.91433    1.05220   1.00
H2       0.81092    0.92874    1.07891   1.00
C5       0.79007    0.89191    1.03166   1.00
H2       0.83438    0.93727    1.03226   1.00
H2       0.77202    0.87707    1.05423   1.00
H2       0.80396    0.86843    1.01399   1.00
C5       0.76440    0.91822    1.00569   1.00
H2       0.75329    0.94321    1.02311   1.00
H2       0.73908    0.90160    0.99391   1.00
H2       0.78104    0.92940    0.97994   1.00
C5       0.92462    0.78868    1.15520   1.00
H2       0.93938    0.76983    1.17718   1.00
H2       0.94757    0.79889    1.13455   1.00
C5       0.89302    0.76571    1.13303   1.00
H2       0.90543    0.73799    1.12166   1.00
C5       1.04091    1.29727    0.89830   1.00
H2       1.02761    1.31255    0.87302   1.00
H2       1.06190    1.27599    0.88576   1.00
C5       1.06249    1.32719    0.92435   1.00
H2       1.09190    1.33390    0.91229   1.00
H2       1.06582    1.31540    0.95443   1.00
O_3      0.93615    1.14500    0.98252   1.00
C4       0.91475    1.18600    0.91463   1.00
C3c      0.94788    1.20743    0.90359   1.00
H1       0.97408    1.19225    0.89473   1.00
C3d      0.88073    1.20635    0.92553   1.00
C3       0.94801    1.24854    0.90429   1.00
O2       0.97976    1.26748    0.88859   1.00
C3       0.88100    1.24727    0.92698   1.00
H1       0.85468    1.26157    0.93685   1.00
C2       0.91440    1.26939    0.91631   1.00
C5       0.90595    1.14379    1.01052   1.00
H2       0.89880    1.11338    1.01958   1.00
H2       0.87880    1.15766    0.99909   1.00
C5       0.91980    1.16622    1.04617   1.00
H2       0.92799    1.19629    1.03692   1.00
H2       0.94670    1.15191    1.05755   1.00
C5       0.88804    1.16754    1.07768   1.00
H2       0.87952    1.13760    1.08686   1.00
H2       0.86165    1.18303    1.06679   1.00
H2       0.89899    1.18330    1.10384   1.00
C5       0.82416    1.17605    0.90789   1.00
C5       1.00724    1.27570    0.91825   1.00
H2       0.83948    1.15588    0.88759   1.00
H2       0.81418    1.20212    0.89113   1.00
H2       1.01793    1.24800    0.93162   1.00
H2       0.99468    1.29395    0.94223   1.00
H2       1.04640    1.35555    0.92562   1.00
H2       0.78258    1.10750    0.88186   1.00
H2       0.75831    1.15266    0.86824   1.00
C2       0.91393    1.06105    0.91734   1.00
C3       0.90510    1.08097    0.88237   1.00
O2       0.88694    1.06174    0.85202   1.00
C3       0.92479    1.08326    0.95041   1.00
H1       0.93270    1.06885    0.97732   1.00
C3a      0.90630    1.12213    0.88149   1.00
H1       0.89731    1.13702    0.85516   1.00
C3b      0.92474    1.12422    0.94978   1.00
C4       0.91538    1.14400    0.91518   1.00
O_3      0.84834    1.18667    0.93947   1.00
C5       0.91433    1.05220    0.82279   1.00
H2       0.92874    1.07891    0.81092   1.00
C5       0.89191    1.03166    0.79007   1.00
H2       0.93727    1.03226    0.83438   1.00
H2       0.87707    1.05423    0.77202   1.00
H2       0.86843    1.01399    0.80396   1.00
C5       0.91822    1.00569    0.76440   1.00
H2       0.94321    1.02311    0.75329   1.00
H2       0.90160    0.99391    0.73908   1.00
H2       0.92940    0.97994    0.78104   1.00
C5       0.78868    1.15520    0.92462   1.00
H2       0.76983    1.17718    0.93938   1.00
H2       0.79889    1.13455    0.94757   1.00
C5       0.76571    1.13303    0.89302   1.00
H2       0.73799    1.12166    0.90543   1.00
C5       0.53273    0.89830    0.78909   1.00
H2       0.51745    0.87302    0.80239   1.00
H2       0.55401    0.88576    0.76810   1.00
C5       0.50281    0.92435    0.76751   1.00
H2       0.49610    0.91229    0.73810   1.00
H2       0.51460    0.95443    0.76418   1.00
O_3      0.68500    0.98252    0.89385   1.00
C4       0.64400    0.91463    0.91525   1.00
C3c      0.62257    0.90359    0.88212   1.00
H1       0.63775    0.89473    0.85592   1.00
C3d      0.62365    0.92553    0.94927   1.00
C3       0.58146    0.90429    0.88199   1.00
O2       0.56252    0.88859    0.85024   1.00
C3       0.58273    0.92698    0.94900   1.00
H1       0.56843    0.93685    0.97532   1.00
C2       0.56061    0.91631    0.91560   1.00
C5       0.68621    1.01052    0.92405   1.00
H2       0.71662    1.01958    0.93120   1.00
H2       0.67234    0.99909    0.95120   1.00
C5       0.66378    1.04617    0.91020   1.00
H2       0.63371    1.03692    0.90201   1.00
H2       0.67809    1.05755    0.88330   1.00
C5       0.66246    1.07768    0.94196   1.00
H2       0.69240    1.08686    0.95048   1.00
H2       0.64697    1.06679    0.96835   1.00
H2       0.64670    1.10384    0.93101   1.00
C5       0.65395    0.90789    1.00584   1.00
C5       0.55430    0.91825    0.82276   1.00
H2       0.67412    0.88759    0.99052   1.00
H2       0.62788    0.89113    1.01582   1.00
H2       0.58200    0.93162    0.81207   1.00
H2       0.53605    0.94223    0.83532   1.00
H2       0.47445    0.92562    0.78360   1.00
H2       0.72250    0.88186    1.04742   1.00
H2       0.67734    0.86824    1.07169   1.00
C2       0.76895    0.91734    0.91607   1.00
C3       0.74903    0.88237    0.92490   1.00
O2       0.76826    0.85202    0.94306   1.00
C3       0.74674    0.95041    0.90521   1.00
H1       0.76115    0.97732    0.89730   1.00
C3a      0.70787    0.88149    0.92370   1.00
H1       0.69298    0.85516    0.93269   1.00
C3b      0.70578    0.94978    0.90526   1.00
C4       0.68600    0.91518    0.91462   1.00
O_3      0.64333    0.93947    0.98166   1.00
C5       0.77780    0.82279    0.91567   1.00
H2       0.75109    0.81092    0.90126   1.00
C5       0.79834    0.79007    0.93809   1.00
H2       0.79774    0.83438    0.89273   1.00
H2       0.77577    0.77202    0.95293   1.00
H2       0.81601    0.80396    0.96157   1.00
C5       0.82431    0.76440    0.91178   1.00
H2       0.80689    0.75329    0.88679   1.00
H2       0.83609    0.73908    0.92840   1.00
H2       0.85006    0.78104    0.90060   1.00
C5       0.67480    0.92462    1.04132   1.00
H2       0.65282    0.93938    1.06017   1.00
H2       0.69545    0.94757    1.03111   1.00
C5       0.69697    0.89302    1.06429   1.00
H2       0.70834    0.90543    1.09201   1.00
C5       1.29727    0.89830    1.04091   1.00
H2       1.31255    0.87302    1.02761   1.00
H2       1.27599    0.88576    1.06190   1.00
C5       1.32719    0.92435    1.06249   1.00
H2       1.33390    0.91229    1.09190   1.00
H2       1.31540    0.95443    1.06582   1.00
O_3      1.14500    0.98252    0.93615   1.00
C4       1.18600    0.91463    0.91475   1.00
C3c      1.20743    0.90359    0.94788   1.00
H1       1.19225    0.89473    0.97408   1.00
C3d      1.20635    0.92553    0.88073   1.00
C3       1.24854    0.90429    0.94801   1.00
O2       1.26748    0.88859    0.97976   1.00
C3       1.24727    0.92698    0.88100   1.00
H1       1.26157    0.93685    0.85468   1.00
C2       1.26939    0.91631    0.91440   1.00
C5       1.14379    1.01052    0.90595   1.00
H2       1.11338    1.01958    0.89880   1.00
H2       1.15766    0.99909    0.87880   1.00
C5       1.16622    1.04617    0.91980   1.00
H2       1.19629    1.03692    0.92799   1.00
H2       1.15191    1.05755    0.94670   1.00
C5       1.16754    1.07768    0.88804   1.00
H2       1.13760    1.08686    0.87952   1.00
H2       1.18303    1.06679    0.86165   1.00
H2       1.18330    1.10384    0.89899   1.00
C5       1.17605    0.90789    0.82416   1.00
C5       1.27570    0.91825    1.00724   1.00
H2       1.15588    0.88759    0.83948   1.00
H2       1.20212    0.89113    0.81418   1.00
H2       1.24800    0.93162    1.01793   1.00
H2       1.29395    0.94223    0.99468   1.00
H2       1.35555    0.92562    1.04640   1.00
H2       1.10750    0.88186    0.78258   1.00
H2       1.15266    0.86824    0.75831   1.00
C2       1.06105    0.91734    0.91393   1.00
C3       1.08097    0.88237    0.90510   1.00
O2       1.06174    0.85202    0.88694   1.00
C3       1.08326    0.95041    0.92479   1.00
H1       1.06885    0.97732    0.93270   1.00
C3a      1.12213    0.88149    0.90630   1.00
H1       1.13702    0.85516    0.89731   1.00
C3b      1.12422    0.94978    0.92474   1.00
C4       1.14400    0.91518    0.91538   1.00
O_3      1.18667    0.93947    0.84834   1.00
C5       1.05220    0.82279    0.91433   1.00
H2       1.07891    0.81092    0.92874   1.00
C5       1.03166    0.79007    0.89191   1.00
H2       1.03226    0.83438    0.93727   1.00
H2       1.05423    0.77202    0.87707   1.00
H2       1.01399    0.80396    0.86843   1.00
C5       1.00569    0.76440    0.91822   1.00
H2       1.02311    0.75329    0.94321   1.00
H2       0.99391    0.73908    0.90160   1.00
H2       0.97994    0.78104    0.92940   1.00
C5       1.15520    0.92462    0.78868   1.00
H2       1.17718    0.93938    0.76983   1.00
H2       1.13455    0.94757    0.79889   1.00
C5       1.13303    0.89302    0.76571   1.00
H2       1.12166    0.90543    0.73799   1.00
C5       0.78909    0.53273    0.89830   1.00
H2       0.80239    0.51745    0.87302   1.00
H2       0.76810    0.55401    0.88576   1.00
C5       0.76751    0.50281    0.92435   1.00
H2       0.73810    0.49610    0.91229   1.00
H2       0.76418    0.51460    0.95443   1.00
O_3      0.89385    0.68500    0.98252   1.00
C4       0.91525    0.64400    0.91463   1.00
C3c      0.88212    0.62257    0.90359   1.00
H1       0.85592    0.63775    0.89473   1.00
C3d      0.94927    0.62365    0.92553   1.00
C3       0.88199    0.58146    0.90429   1.00
O2       0.85024    0.56252    0.88859   1.00
C3       0.94900    0.58273    0.92698   1.00
H1       0.97532    0.56843    0.93685   1.00
C2       0.91560    0.56061    0.91631   1.00
C5       0.92405    0.68621    1.01052   1.00
H2       0.93120    0.71662    1.01958   1.00
H2       0.95120    0.67234    0.99909   1.00
C5       0.91020    0.66378    1.04617   1.00
H2       0.90201    0.63371    1.03692   1.00
H2       0.88330    0.67809    1.05755   1.00
C5       0.94196    0.66246    1.07768   1.00
H2       0.95048    0.69240    1.08686   1.00
H2       0.96835    0.64697    1.06679   1.00
H2       0.93101    0.64670    1.10384   1.00
C5       1.00584    0.65395    0.90789   1.00
C5       0.82276    0.55430    0.91825   1.00
H2       0.99052    0.67412    0.88759   1.00
H2       1.01582    0.62788    0.89113   1.00
H2       0.81207    0.58200    0.93162   1.00
H2       0.83532    0.53605    0.94223   1.00
H2       0.78360    0.47445    0.92562   1.00
H2       1.04742    0.72250    0.88186   1.00
H2       1.07169    0.67734    0.86824   1.00
C2       0.91607    0.76895    0.91734   1.00
C3       0.92490    0.74903    0.88237   1.00
O2       0.94306    0.76826    0.85202   1.00
C3       0.90521    0.74674    0.95041   1.00
H1       0.89730    0.76115    0.97732   1.00
C3a      0.92370    0.70787    0.88149   1.00
H1       0.93269    0.69298    0.85516   1.00
C3b      0.90526    0.70578    0.94978   1.00
C4       0.91462    0.68600    0.91518   1.00
O_3      0.98166    0.64333    0.93947   1.00
C5       0.91567    0.77780    0.82279   1.00
H2       0.90126    0.75109    0.81092   1.00
C5       0.93809    0.79834    0.79007   1.00
H2       0.89273    0.79774    0.83438   1.00
H2       0.95293    0.77577    0.77202   1.00
H2       0.96157    0.81601    0.80396   1.00
C5       0.91178    0.82431    0.76440   1.00
H2       0.88679    0.80689    0.75329   1.00
H2       0.92840    0.83609    0.73908   1.00
H2       0.90060    0.85006    0.78104   1.00
C5       1.04132    0.67480    0.92462   1.00
H2       1.06017    0.65282    0.93938   1.00
H2       1.03111    0.69545    0.94757   1.00
C5       1.06429    0.69697    0.89302   1.00
H2       1.09201    0.70834    0.90543   1.00
C5       0.89830    0.78909    0.53273   1.00
H2       0.87302    0.80239    0.51745   1.00
H2       0.88576    0.76810    0.55401   1.00
C5       0.92435    0.76751    0.50281   1.00
H2       0.91229    0.73810    0.49610   1.00
H2       0.95443    0.76418    0.51460   1.00
O_3      0.98252    0.89385    0.68500   1.00
C4       0.91463    0.91525    0.64400   1.00
C3c      0.90359    0.88212    0.62257   1.00
H1       0.89473    0.85592    0.63775   1.00
C3d      0.92553    0.94927    0.62365   1.00
C3       0.90429    0.88199    0.58146   1.00
O2       0.88859    0.85024    0.56252   1.00
C3       0.92698    0.94900    0.58273   1.00
H1       0.93685    0.97532    0.56843   1.00
C2       0.91631    0.91560    0.56061   1.00
C5       1.01052    0.92405    0.68621   1.00
H2       1.01958    0.93120    0.71662   1.00
H2       0.99909    0.95120    0.67234   1.00
C5       1.04617    0.91020    0.66378   1.00
H2       1.03692    0.90201    0.63371   1.00
H2       1.05755    0.88330    0.67809   1.00
C5       1.07768    0.94196    0.66246   1.00
H2       1.08686    0.95048    0.69240   1.00
H2       1.06679    0.96835    0.64697   1.00
H2       1.10384    0.93101    0.64670   1.00
C5       0.90789    1.00584    0.65395   1.00
C5       0.91825    0.82276    0.55430   1.00
H2       0.88759    0.99052    0.67412   1.00
H2       0.89113    1.01582    0.62788   1.00
H2       0.93162    0.81207    0.58200   1.00
H2       0.94223    0.83532    0.53605   1.00
H2       0.92562    0.78360    0.47445   1.00
H2       0.88186    1.04742    0.72250   1.00
H2       0.86824    1.07169    0.67734   1.00
C2       0.91734    0.91607    0.76895   1.00
C3       0.88237    0.92490    0.74903   1.00
O2       0.85202    0.94306    0.76826   1.00
C3       0.95041    0.90521    0.74674   1.00
H1       0.97732    0.89730    0.76115   1.00
C3a      0.88149    0.92370    0.70787   1.00
H1       0.85516    0.93269    0.69298   1.00
C3b      0.94978    0.90526    0.70578   1.00
C4       0.91518    0.91462    0.68600   1.00
O_3      0.93947    0.98166    0.64333   1.00
C5       0.82279    0.91567    0.77780   1.00
H2       0.81092    0.90126    0.75109   1.00
C5       0.79007    0.93809    0.79834   1.00
H2       0.83438    0.89273    0.79774   1.00
H2       0.77202    0.95293    0.77577   1.00
H2       0.80396    0.96157    0.81601   1.00
C5       0.76440    0.91178    0.82431   1.00
H2       0.75329    0.88679    0.80689   1.00
H2       0.73908    0.92840    0.83609   1.00
H2       0.78104    0.90060    0.85006   1.00
C5       0.92462    1.04132    0.67480   1.00
H2       0.93938    1.06017    0.65282   1.00
H2       0.94757    1.03111    0.69545   1.00
C5       0.89302    1.06429    0.69697   1.00
H2       0.90543    1.09201    0.70834   1.00
C5       0.39830    0.54091    1.29727   1.00
H2       0.37302    0.52761    1.31255   1.00
H2       0.38576    0.56190    1.27599   1.00
C5       0.42435    0.56249    1.32719   1.00
H2       0.41229    0.59190    1.33390   1.00
H2       0.45443    0.56582    1.31540   1.00
O_3      0.48252    0.43615    1.14500   1.00
C4       0.41463    0.41475    1.18600   1.00
C3c      0.40359    0.44788    1.20743   1.00
H1       0.39473    0.47408    1.19225   1.00
C3d      0.42553    0.38073    1.20635   1.00
C3       0.40429    0.44801    1.24854   1.00
O2       0.38859    0.47976    1.26748   1.00
C3       0.42698    0.38100    1.24727   1.00
H1       0.43685    0.35468    1.26157   1.00
C2       0.41631    0.41440    1.26939   1.00
C5       0.51052    0.40595    1.14379   1.00
H2       0.51958    0.39880    1.11338   1.00
H2       0.49909    0.37880    1.15766   1.00
C5       0.54617    0.41980    1.16622   1.00
H2       0.53692    0.42799    1.19629   1.00
H2       0.55755    0.44670    1.15191   1.00
C5       0.57768    0.38804    1.16754   1.00
H2       0.58686    0.37952    1.13760   1.00
H2       0.56679    0.36165    1.18303   1.00
H2       0.60384    0.39899    1.18330   1.00
C5       0.40789    0.32416    1.17605   1.00
C5       0.41825    0.50724    1.27570   1.00
H2       0.38759    0.33948    1.15588   1.00
H2       0.39113    0.31418    1.20212   1.00
H2       0.43162    0.51793    1.24800   1.00
H2       0.44223    0.49468    1.29395   1.00
H2       0.42562    0.54640    1.35555   1.00
H2       0.38186    0.28258    1.10750   1.00
H2       0.36824    0.25831    1.15266   1.00
C2       0.41734    0.41393    1.06105   1.00
C3       0.38237    0.40510    1.08097   1.00
O2       0.35202    0.38694    1.06174   1.00
C3       0.45041    0.42479    1.08326   1.00
H1       0.47732    0.43270    1.06885   1.00
C3a      0.38149    0.40630    1.12213   1.00
H1       0.35516    0.39731    1.13702   1.00
C3b      0.44978    0.42474    1.12422   1.00
C4       0.41518    0.41538    1.14400   1.00
O_3      0.43947    0.34834    1.18667   1.00
C5       0.32279    0.41433    1.05220   1.00
H2       0.31092    0.42874    1.07891   1.00
C5       0.29007    0.39191    1.03166   1.00
H2       0.33438    0.43727    1.03226   1.00
H2       0.27202    0.37707    1.05423   1.00
H2       0.30396    0.36843    1.01399   1.00
C5       0.26440    0.41822    1.00569   1.00
H2       0.25329    0.44321    1.02311   1.00
H2       0.23908    0.40160    0.99391   1.00
H2       0.28104    0.42940    0.97994   1.00
C5       0.42462    0.28868    1.15520   1.00
H2       0.43938    0.26983    1.17718   1.00
H2       0.44757    0.29889    1.13455   1.00
C5       0.39302    0.26571    1.13303   1.00
H2       0.40543    0.23799    1.12166   1.00
C5       0.54091    0.79727    0.89830   1.00
H2       0.52761    0.81255    0.87302   1.00
H2       0.56190    0.77599    0.88576   1.00
C5       0.56249    0.82719    0.92435   1.00
H2       0.59190    0.83390    0.91229   1.00
H2       0.56582    0.81540    0.95443   1.00
O_3      0.43615    0.64500    0.98252   1.00
C4       0.41475    0.68600    0.91463   1.00
C3c      0.44788    0.70743    0.90359   1.00
H1       0.47408    0.69225    0.89473   1.00
C3d      0.38073    0.70635    0.92553   1.00
C3       0.44801    0.74854    0.90429   1.00
O2       0.47976    0.76748    0.88859   1.00
C3       0.38100    0.74727    0.92698   1.00
H1       0.35468    0.76157    0.93685   1.00
C2       0.41440    0.76939    0.91631   1.00
C5       0.40595    0.64379    1.01052   1.00
H2       0.39880    0.61338    1.01958   1.00
H2       0.37880    0.65766    0.99909   1.00
C5       0.41980    0.66622    1.04617   1.00
H2       0.42799    0.69629    1.03692   1.00
H2       0.44670    0.65191    1.05755   1.00
C5       0.38804    0.66754    1.07768   1.00
H2       0.37952    0.63760    1.08686   1.00
H2       0.36165    0.68303    1.06679   1.00
H2       0.39899    0.68330    1.10384   1.00
C5       0.32416    0.67605    0.90789   1.00
C5       0.50724    0.77570    0.91825   1.00
H2       0.33948    0.65588    0.88759   1.00
H2       0.31418    0.70212    0.89113   1.00
H2       0.51793    0.74800    0.93162   1.00
H2       0.49468    0.79395    0.94223   1.00
H2       0.54640    0.85555    0.92562   1.00
H2       0.28258    0.60750    0.88186   1.00
H2       0.25831    0.65266    0.86824   1.00
C2       0.41393    0.56105    0.91734   1.00
C3       0.40510    0.58097    0.88237   1.00
O2       0.38694    0.56174    0.85202   1.00
C3       0.42479    0.58326    0.95041   1.00
H1       0.43270    0.56885    0.97732   1.00
C3a      0.40630    0.62213    0.88149   1.00
H1       0.39731    0.63702    0.85516   1.00
C3b      0.42474    0.62422    0.94978   1.00
C4       0.41538    0.64400    0.91518   1.00
O_3      0.34834    0.68667    0.93947   1.00
C5       0.41433    0.55220    0.82279   1.00
H2       0.42874    0.57891    0.81092   1.00
C5       0.39191    0.53166    0.79007   1.00
H2       0.43727    0.53226    0.83438   1.00
H2       0.37707    0.55423    0.77202   1.00
H2       0.36843    0.51399    0.80396   1.00
C5       0.41822    0.50569    0.76440   1.00
H2       0.44321    0.52311    0.75329   1.00
H2       0.40160    0.49391    0.73908   1.00
H2       0.42940    0.47994    0.78104   1.00
C5       0.28868    0.65520    0.92462   1.00
H2       0.26983    0.67718    0.93938   1.00
H2       0.29889    0.63455    0.94757   1.00
C5       0.26571    0.63303    0.89302   1.00
H2       0.23799    0.62166    0.90543   1.00
C5       0.03273    0.39830    0.78909   1.00
H2       0.01745    0.37302    0.80239   1.00
H2       0.05401    0.38576    0.76810   1.00
C5       0.00281    0.42435    0.76751   1.00
H2       -0.00390   0.41229    0.73810   1.00
H2       0.01460    0.45443    0.76418   1.00
O_3      0.18500    0.48252    0.89385   1.00
C4       0.14400    0.41463    0.91525   1.00
C3c      0.12257    0.40359    0.88212   1.00
H1       0.13775    0.39473    0.85592   1.00
C3d      0.12365    0.42553    0.94927   1.00
C3       0.08146    0.40429    0.88199   1.00
O2       0.06252    0.38859    0.85024   1.00
C3       0.08273    0.42698    0.94900   1.00
H1       0.06843    0.43685    0.97532   1.00
C2       0.06061    0.41631    0.91560   1.00
C5       0.18621    0.51052    0.92405   1.00
H2       0.21662    0.51958    0.93120   1.00
H2       0.17234    0.49909    0.95120   1.00
C5       0.16378    0.54617    0.91020   1.00
H2       0.13371    0.53692    0.90201   1.00
H2       0.17809    0.55755    0.88330   1.00
C5       0.16246    0.57768    0.94196   1.00
H2       0.19240    0.58686    0.95048   1.00
H2       0.14697    0.56679    0.96835   1.00
H2       0.14670    0.60384    0.93101   1.00
C5       0.15395    0.40789    1.00584   1.00
C5       0.05430    0.41825    0.82276   1.00
H2       0.17412    0.38759    0.99052   1.00
H2       0.12788    0.39113    1.01582   1.00
H2       0.08200    0.43162    0.81207   1.00
H2       0.03605    0.44223    0.83532   1.00
H2       -0.02555   0.42562    0.78360   1.00
H2       0.22250    0.38186    1.04742   1.00
H2       0.17734    0.36824    1.07169   1.00
C2       0.26895    0.41734    0.91607   1.00
C3       0.24903    0.38237    0.92490   1.00
O2       0.26826    0.35202    0.94306   1.00
C3       0.24674    0.45041    0.90521   1.00
H1       0.26115    0.47732    0.89730   1.00
C3a      0.20787    0.38149    0.92370   1.00
H1       0.19298    0.35516    0.93269   1.00
C3b      0.20578    0.44978    0.90526   1.00
C4       0.18600    0.41518    0.91462   1.00
O_3      0.14333    0.43947    0.98166   1.00
C5       0.27780    0.32279    0.91567   1.00
H2       0.25109    0.31092    0.90126   1.00
C5       0.29834    0.29007    0.93809   1.00
H2       0.29774    0.33438    0.89273   1.00
H2       0.27577    0.27202    0.95293   1.00
H2       0.31601    0.30396    0.96157   1.00
C5       0.32431    0.26440    0.91178   1.00
H2       0.30689    0.25329    0.88679   1.00
H2       0.33609    0.23908    0.92840   1.00
H2       0.35006    0.28104    0.90060   1.00
C5       0.17480    0.42462    1.04132   1.00
H2       0.15282    0.43938    1.06017   1.00
H2       0.19545    0.44757    1.03111   1.00
C5       0.19697    0.39302    1.06429   1.00
H2       0.20834    0.40543    1.09201   1.00
C5       0.79727    0.39830    1.04091   1.00
H2       0.81255    0.37302    1.02761   1.00
H2       0.77599    0.38576    1.06190   1.00
C5       0.82719    0.42435    1.06249   1.00
H2       0.83390    0.41229    1.09190   1.00
H2       0.81540    0.45443    1.06582   1.00
O_3      0.64500    0.48252    0.93615   1.00
C4       0.68600    0.41463    0.91475   1.00
C3c      0.70743    0.40359    0.94788   1.00
H1       0.69225    0.39473    0.97408   1.00
C3d      0.70635    0.42553    0.88073   1.00
C3       0.74854    0.40429    0.94801   1.00
O2       0.76748    0.38859    0.97976   1.00
C3       0.74727    0.42698    0.88100   1.00
H1       0.76157    0.43685    0.85468   1.00
C2       0.76939    0.41631    0.91440   1.00
C5       0.64379    0.51052    0.90595   1.00
H2       0.61338    0.51958    0.89880   1.00
H2       0.65766    0.49909    0.87880   1.00
C5       0.66622    0.54617    0.91980   1.00
H2       0.69629    0.53692    0.92799   1.00
H2       0.65191    0.55755    0.94670   1.00
C5       0.66754    0.57768    0.88804   1.00
H2       0.63760    0.58686    0.87952   1.00
H2       0.68303    0.56679    0.86165   1.00
H2       0.68330    0.60384    0.89899   1.00
C5       0.67605    0.40789    0.82416   1.00
C5       0.77570    0.41825    1.00724   1.00
H2       0.65588    0.38759    0.83948   1.00
H2       0.70212    0.39113    0.81418   1.00
H2       0.74800    0.43162    1.01793   1.00
H2       0.79395    0.44223    0.99468   1.00
H2       0.85555    0.42562    1.04640   1.00
H2       0.60750    0.38186    0.78258   1.00
H2       0.65266    0.36824    0.75831   1.00
C2       0.56105    0.41734    0.91393   1.00
C3       0.58097    0.38237    0.90510   1.00
O2       0.56174    0.35202    0.88694   1.00
C3       0.58326    0.45041    0.92479   1.00
H1       0.56885    0.47732    0.93270   1.00
C3a      0.62213    0.38149    0.90630   1.00
H1       0.63702    0.35516    0.89731   1.00
C3b      0.62422    0.44978    0.92474   1.00
C4       0.64400    0.41518    0.91538   1.00
O_3      0.68667    0.43947    0.84834   1.00
C5       0.55220    0.32279    0.91433   1.00
H2       0.57891    0.31092    0.92874   1.00
C5       0.53166    0.29007    0.89191   1.00
H2       0.53226    0.33438    0.93727   1.00
H2       0.55423    0.27202    0.87707   1.00
H2       0.51399    0.30396    0.86843   1.00
C5       0.50569    0.26440    0.91822   1.00
H2       0.52311    0.25329    0.94321   1.00
H2       0.49391    0.23908    0.90160   1.00
H2       0.47994    0.28104    0.92940   1.00
C5       0.65520    0.42462    0.78868   1.00
H2       0.67718    0.43938    0.76983   1.00
H2       0.63455    0.44757    0.79889   1.00
C5       0.63303    0.39302    0.76571   1.00
H2       0.62166    0.40543    0.73799   1.00
C5       0.28909    0.03273    0.89830   1.00
H2       0.30239    0.01745    0.87302   1.00
H2       0.26810    0.05401    0.88576   1.00
C5       0.26751    0.00281    0.92435   1.00
H2       0.23810    -0.00390   0.91229   1.00
H2       0.26418    0.01460    0.95443   1.00
O_3      0.39385    0.18500    0.98252   1.00
C4       0.41525    0.14400    0.91463   1.00
C3c      0.38212    0.12257    0.90359   1.00
H1       0.35592    0.13775    0.89473   1.00
C3d      0.44927    0.12365    0.92553   1.00
C3       0.38199    0.08146    0.90429   1.00
O2       0.35024    0.06252    0.88859   1.00
C3       0.44900    0.08273    0.92698   1.00
H1       0.47532    0.06843    0.93685   1.00
C2       0.41560    0.06061    0.91631   1.00
C5       0.42405    0.18621    1.01052   1.00
H2       0.43120    0.21662    1.01958   1.00
H2       0.45120    0.17234    0.99909   1.00
C5       0.41020    0.16378    1.04617   1.00
H2       0.40201    0.13371    1.03692   1.00
H2       0.38330    0.17809    1.05755   1.00
C5       0.44196    0.16246    1.07768   1.00
H2       0.45048    0.19240    1.08686   1.00
H2       0.46835    0.14697    1.06679   1.00
H2       0.43101    0.14670    1.10384   1.00
C5       0.50584    0.15395    0.90789   1.00
C5       0.32276    0.05430    0.91825   1.00
H2       0.49052    0.17412    0.88759   1.00
H2       0.51582    0.12788    0.89113   1.00
H2       0.31207    0.08200    0.93162   1.00
H2       0.33532    0.03605    0.94223   1.00
H2       0.28360    -0.02555   0.92562   1.00
H2       0.54742    0.22250    0.88186   1.00
H2       0.57169    0.17734    0.86824   1.00
C2       0.41607    0.26895    0.91734   1.00
C3       0.42490    0.24903    0.88237   1.00
O2       0.44306    0.26826    0.85202   1.00
C3       0.40521    0.24674    0.95041   1.00
H1       0.39730    0.26115    0.97732   1.00
C3a      0.42370    0.20787    0.88149   1.00
H1       0.43269    0.19298    0.85516   1.00
C3b      0.40526    0.20578    0.94978   1.00
C4       0.41462    0.18600    0.91518   1.00
O_3      0.48166    0.14333    0.93947   1.00
C5       0.41567    0.27780    0.82279   1.00
H2       0.40126    0.25109    0.81092   1.00
C5       0.43809    0.29834    0.79007   1.00
H2       0.39273    0.29774    0.83438   1.00
H2       0.45293    0.27577    0.77202   1.00
H2       0.46157    0.31601    0.80396   1.00
C5       0.41178    0.32431    0.76440   1.00
H2       0.38679    0.30689    0.75329   1.00
H2       0.42840    0.33609    0.73908   1.00
H2       0.40060    0.35006    0.78104   1.00
C5       0.54132    0.17480    0.92462   1.00
H2       0.56017    0.15282    0.93938   1.00
H2       0.53111    0.19545    0.94757   1.00
C5       0.56429    0.19697    0.89302   1.00
H2       0.59201    0.20834    0.90543   1.00
C5       0.39830    0.28909    0.53273   1.00
H2       0.37302    0.30239    0.51745   1.00
H2       0.38576    0.26810    0.55401   1.00
C5       0.42435    0.26751    0.50281   1.00
H2       0.41229    0.23810    0.49610   1.00
H2       0.45443    0.26418    0.51460   1.00
O_3      0.48252    0.39385    0.68500   1.00
C4       0.41463    0.41525    0.64400   1.00
C3c      0.40359    0.38212    0.62257   1.00
H1       0.39473    0.35592    0.63775   1.00
C3d      0.42553    0.44927    0.62365   1.00
C3       0.40429    0.38199    0.58146   1.00
O2       0.38859    0.35024    0.56252   1.00
C3       0.42698    0.44900    0.58273   1.00
H1       0.43685    0.47532    0.56843   1.00
C2       0.41631    0.41560    0.56061   1.00
C5       0.51052    0.42405    0.68621   1.00
H2       0.51958    0.43120    0.71662   1.00
H2       0.49909    0.45120    0.67234   1.00
C5       0.54617    0.41020    0.66378   1.00
H2       0.53692    0.40201    0.63371   1.00
H2       0.55755    0.38330    0.67809   1.00
C5       0.57768    0.44196    0.66246   1.00
H2       0.58686    0.45048    0.69240   1.00
H2       0.56679    0.46835    0.64697   1.00
H2       0.60384    0.43101    0.64670   1.00
C5       0.40789    0.50584    0.65395   1.00
C5       0.41825    0.32276    0.55430   1.00
H2       0.38759    0.49052    0.67412   1.00
H2       0.39113    0.51582    0.62788   1.00
H2       0.43162    0.31207    0.58200   1.00
H2       0.44223    0.33532    0.53605   1.00
H2       0.42562    0.28360    0.47445   1.00
H2       0.38186    0.54742    0.72250   1.00
H2       0.36824    0.57169    0.67734   1.00
C2       0.41734    0.41607    0.76895   1.00
C3       0.38237    0.42490    0.74903   1.00
O2       0.35202    0.44306    0.76826   1.00
C3       0.45041    0.40521    0.74674   1.00
H1       0.47732    0.39730    0.76115   1.00
C3a      0.38149    0.42370    0.70787   1.00
H1       0.35516    0.43269    0.69298   1.00
C3b      0.44978    0.40526    0.70578   1.00
C4       0.41518    0.41462    0.68600   1.00
O_3      0.43947    0.48166    0.64333   1.00
C5       0.32279    0.41567    0.77780   1.00
H2       0.31092    0.40126    0.75109   1.00
C5       0.29007    0.43809    0.79834   1.00
H2       0.33438    0.39273    0.79774   1.00
H2       0.27202    0.45293    0.77577   1.00
H2       0.30396    0.46157    0.81601   1.00
C5       0.26440    0.41178    0.82431   1.00
H2       0.25329    0.38679    0.80689   1.00
H2       0.23908    0.42840    0.83609   1.00
H2       0.28104    0.40060    0.85006   1.00
C5       0.42462    0.54132    0.67480   1.00
H2       0.43938    0.56017    0.65282   1.00
H2       0.44757    0.53111    0.69545   1.00
C5       0.39302    0.56429    0.69697   1.00
H2       0.40543    0.59201    0.70834   1.00
C5       0.39830    1.04091    0.79727   1.00
H2       0.37302    1.02761    0.81255   1.00
H2       0.38576    1.06190    0.77599   1.00
C5       0.42435    1.06249    0.82719   1.00
H2       0.41229    1.09190    0.83390   1.00
H2       0.45443    1.06582    0.81540   1.00
O_3      0.48252    0.93615    0.64500   1.00
C4       0.41463    0.91475    0.68600   1.00
C3c      0.40359    0.94788    0.70743   1.00
H1       0.39473    0.97408    0.69225   1.00
C3d      0.42553    0.88073    0.70635   1.00
C3       0.40429    0.94801    0.74854   1.00
O2       0.38859    0.97976    0.76748   1.00
C3       0.42698    0.88100    0.74727   1.00
H1       0.43685    0.85468    0.76157   1.00
C2       0.41631    0.91440    0.76939   1.00
C5       0.51052    0.90595    0.64379   1.00
H2       0.51958    0.89880    0.61338   1.00
H2       0.49909    0.87880    0.65766   1.00
C5       0.54617    0.91980    0.66622   1.00
H2       0.53692    0.92799    0.69629   1.00
H2       0.55755    0.94670    0.65191   1.00
C5       0.57768    0.88804    0.66754   1.00
H2       0.58686    0.87952    0.63760   1.00
H2       0.56679    0.86165    0.68303   1.00
H2       0.60384    0.89899    0.68330   1.00
C5       0.40789    0.82416    0.67605   1.00
C5       0.41825    1.00724    0.77570   1.00
H2       0.38759    0.83948    0.65588   1.00
H2       0.39113    0.81418    0.70212   1.00
H2       0.43162    1.01793    0.74800   1.00
H2       0.44223    0.99468    0.79395   1.00
H2       0.42562    1.04640    0.85555   1.00
H2       0.38186    0.78258    0.60750   1.00
H2       0.36824    0.75831    0.65266   1.00
C2       0.41734    0.91393    0.56105   1.00
C3       0.38237    0.90510    0.58097   1.00
O2       0.35202    0.88694    0.56174   1.00
C3       0.45041    0.92479    0.58326   1.00
H1       0.47732    0.93270    0.56885   1.00
C3a      0.38149    0.90630    0.62213   1.00
H1       0.35516    0.89731    0.63702   1.00
C3b      0.44978    0.92474    0.62422   1.00
C4       0.41518    0.91538    0.64400   1.00
O_3      0.43947    0.84834    0.68667   1.00
C5       0.32279    0.91433    0.55220   1.00
H2       0.31092    0.92874    0.57891   1.00
C5       0.29007    0.89191    0.53166   1.00
H2       0.33438    0.93727    0.53226   1.00
H2       0.27202    0.87707    0.55423   1.00
H2       0.30396    0.86843    0.51399   1.00
C5       0.26440    0.91822    0.50569   1.00
H2       0.25329    0.94321    0.52311   1.00
H2       0.23908    0.90160    0.49391   1.00
H2       0.28104    0.92940    0.47994   1.00
C5       0.42462    0.78868    0.65520   1.00
H2       0.43938    0.76983    0.67718   1.00
H2       0.44757    0.79889    0.63455   1.00
C5       0.39302    0.76571    0.63303   1.00
H2       0.40543    0.73799    0.62166   1.00
C5       0.54091    1.29727    0.39830   1.00
H2       0.52761    1.31255    0.37302   1.00
H2       0.56190    1.27599    0.38576   1.00
C5       0.56249    1.32719    0.42435   1.00
H2       0.59190    1.33390    0.41229   1.00
H2       0.56582    1.31540    0.45443   1.00
O_3      0.43615    1.14500    0.48252   1.00
C4       0.41475    1.18600    0.41463   1.00
C3c      0.44788    1.20743    0.40359   1.00
H1       0.47408    1.19225    0.39473   1.00
C3d      0.38073    1.20635    0.42553   1.00
C3       0.44801    1.24854    0.40429   1.00
O2       0.47976    1.26748    0.38859   1.00
C3       0.38100    1.24727    0.42698   1.00
H1       0.35468    1.26157    0.43685   1.00
C2       0.41440    1.26939    0.41631   1.00
C5       0.40595    1.14379    0.51052   1.00
H2       0.39880    1.11338    0.51958   1.00
H2       0.37880    1.15766    0.49909   1.00
C5       0.41980    1.16622    0.54617   1.00
H2       0.42799    1.19629    0.53692   1.00
H2       0.44670    1.15191    0.55755   1.00
C5       0.38804    1.16754    0.57768   1.00
H2       0.37952    1.13760    0.58686   1.00
H2       0.36165    1.18303    0.56679   1.00
H2       0.39899    1.18330    0.60384   1.00
C5       0.32416    1.17605    0.40789   1.00
C5       0.50724    1.27570    0.41825   1.00
H2       0.33948    1.15588    0.38759   1.00
H2       0.31418    1.20212    0.39113   1.00
H2       0.51793    1.24800    0.43162   1.00
H2       0.49468    1.29395    0.44223   1.00
H2       0.54640    1.35555    0.42562   1.00
H2       0.28258    1.10750    0.38186   1.00
H2       0.25831    1.15266    0.36824   1.00
C2       0.41393    1.06105    0.41734   1.00
C3       0.40510    1.08097    0.38237   1.00
O2       0.38694    1.06174    0.35202   1.00
C3       0.42479    1.08326    0.45041   1.00
H1       0.43270    1.06885    0.47732   1.00
C3a      0.40630    1.12213    0.38149   1.00
H1       0.39731    1.13702    0.35516   1.00
C3b      0.42474    1.12422    0.44978   1.00
C4       0.41538    1.14400    0.41518   1.00
O_3      0.34834    1.18667    0.43947   1.00
C5       0.41433    1.05220    0.32279   1.00
H2       0.42874    1.07891    0.31092   1.00
C5       0.39191    1.03166    0.29007   1.00
H2       0.43727    1.03226    0.33438   1.00
H2       0.37707    1.05423    0.27202   1.00
H2       0.36843    1.01399    0.30396   1.00
C5       0.41822    1.00569    0.26440   1.00
H2       0.44321    1.02311    0.25329   1.00
H2       0.40160    0.99391    0.23908   1.00
H2       0.42940    0.97994    0.28104   1.00
C5       0.28868    1.15520    0.42462   1.00
H2       0.26983    1.17718    0.43938   1.00
H2       0.29889    1.13455    0.44757   1.00
C5       0.26571    1.13303    0.39302   1.00
H2       0.23799    1.12166    0.40543   1.00
C5       0.03273    0.89830    0.28909   1.00
H2       0.01745    0.87302    0.30239   1.00
H2       0.05401    0.88576    0.26810   1.00
C5       0.00281    0.92435    0.26751   1.00
H2       -0.00390   0.91229    0.23810   1.00
H2       0.01460    0.95443    0.26418   1.00
O_3      0.18500    0.98252    0.39385   1.00
C4       0.14400    0.91463    0.41525   1.00
C3c      0.12257    0.90359    0.38212   1.00
H1       0.13775    0.89473    0.35592   1.00
C3d      0.12365    0.92553    0.44927   1.00
C3       0.08146    0.90429    0.38199   1.00
O2       0.06252    0.88859    0.35024   1.00
C3       0.08273    0.92698    0.44900   1.00
H1       0.06843    0.93685    0.47532   1.00
C2       0.06061    0.91631    0.41560   1.00
C5       0.18621    1.01052    0.42405   1.00
H2       0.21662    1.01958    0.43120   1.00
H2       0.17234    0.99909    0.45120   1.00
C5       0.16378    1.04617    0.41020   1.00
H2       0.13371    1.03692    0.40201   1.00
H2       0.17809    1.05755    0.38330   1.00
C5       0.16246    1.07768    0.44196   1.00
H2       0.19240    1.08686    0.45048   1.00
H2       0.14697    1.06679    0.46835   1.00
H2       0.14670    1.10384    0.43101   1.00
C5       0.15395    0.90789    0.50584   1.00
C5       0.05430    0.91825    0.32276   1.00
H2       0.17412    0.88759    0.49052   1.00
H2       0.12788    0.89113    0.51582   1.00
H2       0.08200    0.93162    0.31207   1.00
H2       0.03605    0.94223    0.33532   1.00
H2       -0.02555   0.92562    0.28360   1.00
H2       0.22250    0.88186    0.54742   1.00
H2       0.17734    0.86824    0.57169   1.00
C2       0.26895    0.91734    0.41607   1.00
C3       0.24903    0.88237    0.42490   1.00
O2       0.26826    0.85202    0.44306   1.00
C3       0.24674    0.95041    0.40521   1.00
H1       0.26115    0.97732    0.39730   1.00
C3a      0.20787    0.88149    0.42370   1.00
H1       0.19298    0.85516    0.43269   1.00
C3b      0.20578    0.94978    0.40526   1.00
C4       0.18600    0.91518    0.41462   1.00
O_3      0.14333    0.93947    0.48166   1.00
C5       0.27780    0.82279    0.41567   1.00
H2       0.25109    0.81092    0.40126   1.00
C5       0.29834    0.79007    0.43809   1.00
H2       0.29774    0.83438    0.39273   1.00
H2       0.27577    0.77202    0.45293   1.00
H2       0.31601    0.80396    0.46157   1.00
C5       0.32431    0.76440    0.41178   1.00
H2       0.30689    0.75329    0.38679   1.00
H2       0.33609    0.73908    0.42840   1.00
H2       0.35006    0.78104    0.40060   1.00
C5       0.17480    0.92462    0.54132   1.00
H2       0.15282    0.93938    0.56017   1.00
H2       0.19545    0.94757    0.53111   1.00
C5       0.19697    0.89302    0.56429   1.00
H2       0.20834    0.90543    0.59201   1.00
C5       0.79727    0.89830    0.54091   1.00
H2       0.81255    0.87302    0.52761   1.00
H2       0.77599    0.88576    0.56190   1.00
C5       0.82719    0.92435    0.56249   1.00
H2       0.83390    0.91229    0.59190   1.00
H2       0.81540    0.95443    0.56582   1.00
O_3      0.64500    0.98252    0.43615   1.00
C4       0.68600    0.91463    0.41475   1.00
C3c      0.70743    0.90359    0.44788   1.00
H1       0.69225    0.89473    0.47408   1.00
C3d      0.70635    0.92553    0.38073   1.00
C3       0.74854    0.90429    0.44801   1.00
O2       0.76748    0.88859    0.47976   1.00
C3       0.74727    0.92698    0.38100   1.00
H1       0.76157    0.93685    0.35468   1.00
C2       0.76939    0.91631    0.41440   1.00
C5       0.64379    1.01052    0.40595   1.00
H2       0.61338    1.01958    0.39880   1.00
H2       0.65766    0.99909    0.37880   1.00
C5       0.66622    1.04617    0.41980   1.00
H2       0.69629    1.03692    0.42799   1.00
H2       0.65191    1.05755    0.44670   1.00
C5       0.66754    1.07768    0.38804   1.00
H2       0.63760    1.08686    0.37952   1.00
H2       0.68303    1.06679    0.36165   1.00
H2       0.68330    1.10384    0.39899   1.00
C5       0.67605    0.90789    0.32416   1.00
C5       0.77570    0.91825    0.50724   1.00
H2       0.65588    0.88759    0.33948   1.00
H2       0.70212    0.89113    0.31418   1.00
H2       0.74800    0.93162    0.51793   1.00
H2       0.79395    0.94223    0.49468   1.00
H2       0.85555    0.92562    0.54640   1.00
H2       0.60750    0.88186    0.28258   1.00
H2       0.65266    0.86824    0.25831   1.00
C2       0.56105    0.91734    0.41393   1.00
C3       0.58097    0.88237    0.40510   1.00
O2       0.56174    0.85202    0.38694   1.00
C3       0.58326    0.95041    0.42479   1.00
H1       0.56885    0.97732    0.43270   1.00
C3a      0.62213    0.88149    0.40630   1.00
H1       0.63702    0.85516    0.39731   1.00
C3b      0.62422    0.94978    0.42474   1.00
C4       0.64400    0.91518    0.41538   1.00
O_3      0.68667    0.93947    0.34834   1.00
C5       0.55220    0.82279    0.41433   1.00
H2       0.57891    0.81092    0.42874   1.00
C5       0.53166    0.79007    0.39191   1.00
H2       0.53226    0.83438    0.43727   1.00
H2       0.55423    0.77202    0.37707   1.00
H2       0.51399    0.80396    0.36843   1.00
C5       0.50569    0.76440    0.41822   1.00
H2       0.52311    0.75329    0.44321   1.00
H2       0.49391    0.73908    0.40160   1.00
H2       0.47994    0.78104    0.42940   1.00
C5       0.65520    0.92462    0.28868   1.00
H2       0.67718    0.93938    0.26983   1.00
H2       0.63455    0.94757    0.29889   1.00
C5       0.63303    0.89302    0.26571   1.00
H2       0.62166    0.90543    0.23799   1.00
C5       0.28909    0.53273    0.39830   1.00
H2       0.30239    0.51745    0.37302   1.00
H2       0.26810    0.55401    0.38576   1.00
C5       0.26751    0.50281    0.42435   1.00
H2       0.23810    0.49610    0.41229   1.00
H2       0.26418    0.51460    0.45443   1.00
O_3      0.39385    0.68500    0.48252   1.00
C4       0.41525    0.64400    0.41463   1.00
C3c      0.38212    0.62257    0.40359   1.00
H1       0.35592    0.63775    0.39473   1.00
C3d      0.44927    0.62365    0.42553   1.00
C3       0.38199    0.58146    0.40429   1.00
O2       0.35024    0.56252    0.38859   1.00
C3       0.44900    0.58273    0.42698   1.00
H1       0.47532    0.56843    0.43685   1.00
C2       0.41560    0.56061    0.41631   1.00
C5       0.42405    0.68621    0.51052   1.00
H2       0.43120    0.71662    0.51958   1.00
H2       0.45120    0.67234    0.49909   1.00
C5       0.41020    0.66378    0.54617   1.00
H2       0.40201    0.63371    0.53692   1.00
H2       0.38330    0.67809    0.55755   1.00
C5       0.44196    0.66246    0.57768   1.00
H2       0.45048    0.69240    0.58686   1.00
H2       0.46835    0.64697    0.56679   1.00
H2       0.43101    0.64670    0.60384   1.00
C5       0.50584    0.65395    0.40789   1.00
C5       0.32276    0.55430    0.41825   1.00
H2       0.49052    0.67412    0.38759   1.00
H2       0.51582    0.62788    0.39113   1.00
H2       0.31207    0.58200    0.43162   1.00
H2       0.33532    0.53605    0.44223   1.00
H2       0.28360    0.47445    0.42562   1.00
H2       0.54742    0.72250    0.38186   1.00
H2       0.57169    0.67734    0.36824   1.00
C2       0.41607    0.76895    0.41734   1.00
C3       0.42490    0.74903    0.38237   1.00
O2       0.44306    0.76826    0.35202   1.00
C3       0.40521    0.74674    0.45041   1.00
H1       0.39730    0.76115    0.47732   1.00
C3a      0.42370    0.70787    0.38149   1.00
H1       0.43269    0.69298    0.35516   1.00
C3b      0.40526    0.70578    0.44978   1.00
C4       0.41462    0.68600    0.41518   1.00
O_3      0.48166    0.64333    0.43947   1.00
C5       0.41567    0.77780    0.32279   1.00
H2       0.40126    0.75109    0.31092   1.00
C5       0.43809    0.79834    0.29007   1.00
H2       0.39273    0.79774    0.33438   1.00
H2       0.45293    0.77577    0.27202   1.00
H2       0.46157    0.81601    0.30396   1.00
C5       0.41178    0.82431    0.26440   1.00
H2       0.38679    0.80689    0.25329   1.00
H2       0.42840    0.83609    0.23908   1.00
H2       0.40060    0.85006    0.28104   1.00
C5       0.54132    0.67480    0.42462   1.00
H2       0.56017    0.65282    0.43938   1.00
H2       0.53111    0.69545    0.44757   1.00
C5       0.56429    0.69697    0.39302   1.00
H2       0.59201    0.70834    0.40543   1.00
C5       0.39830    0.78909    0.03273   1.00
H2       0.37302    0.80239    0.01745   1.00
H2       0.38576    0.76810    0.05401   1.00
C5       0.42435    0.76751    0.00281   1.00
H2       0.41229    0.73810    -0.00390   1.00
H2       0.45443    0.76418    0.01460   1.00
O_3      0.48252    0.89385    0.18500   1.00
C4       0.41463    0.91525    0.14400   1.00
C3c      0.40359    0.88212    0.12257   1.00
H1       0.39473    0.85592    0.13775   1.00
C3d      0.42553    0.94927    0.12365   1.00
C3       0.40429    0.88199    0.08146   1.00
O2       0.38859    0.85024    0.06252   1.00
C3       0.42698    0.94900    0.08273   1.00
H1       0.43685    0.97532    0.06843   1.00
C2       0.41631    0.91560    0.06061   1.00
C5       0.51052    0.92405    0.18621   1.00
H2       0.51958    0.93120    0.21662   1.00
H2       0.49909    0.95120    0.17234   1.00
C5       0.54617    0.91020    0.16378   1.00
H2       0.53692    0.90201    0.13371   1.00
H2       0.55755    0.88330    0.17809   1.00
C5       0.57768    0.94196    0.16246   1.00
H2       0.58686    0.95048    0.19240   1.00
H2       0.56679    0.96835    0.14697   1.00
H2       0.60384    0.93101    0.14670   1.00
C5       0.40789    1.00584    0.15395   1.00
C5       0.41825    0.82276    0.05430   1.00
H2       0.38759    0.99052    0.17412   1.00
H2       0.39113    1.01582    0.12788   1.00
H2       0.43162    0.81207    0.08200   1.00
H2       0.44223    0.83532    0.03605   1.00
H2       0.42562    0.78360    -0.02555   1.00
H2       0.38186    1.04742    0.22250   1.00
H2       0.36824    1.07169    0.17734   1.00
C2       0.41734    0.91607    0.26895   1.00
C3       0.38237    0.92490    0.24903   1.00
O2       0.35202    0.94306    0.26826   1.00
C3       0.45041    0.90521    0.24674   1.00
H1       0.47732    0.89730    0.26115   1.00
C3a      0.38149    0.92370    0.20787   1.00
H1       0.35516    0.93269    0.19298   1.00
C3b      0.44978    0.90526    0.20578   1.00
C4       0.41518    0.91462    0.18600   1.00
O_3      0.43947    0.98166    0.14333   1.00
C5       0.32279    0.91567    0.27780   1.00
H2       0.31092    0.90126    0.25109   1.00
C5       0.29007    0.93809    0.29834   1.00
H2       0.33438    0.89273    0.29774   1.00
H2       0.27202    0.95293    0.27577   1.00
H2       0.30396    0.96157    0.31601   1.00
C5       0.26440    0.91178    0.32431   1.00
H2       0.25329    0.88679    0.30689   1.00
H2       0.23908    0.92840    0.33609   1.00
H2       0.28104    0.90060    0.35006   1.00
C5       0.42462    1.04132    0.17480   1.00
H2       0.43938    1.06017    0.15282   1.00
H2       0.44757    1.03111    0.19545   1.00
C5       0.39302    1.06429    0.19697   1.00
H2       0.40543    1.09201    0.20834   1.00
C5       0.89830    0.54091    0.79727   1.00
H2       0.87302    0.52761    0.81255   1.00
H2       0.88576    0.56190    0.77599   1.00
C5       0.92435    0.56249    0.82719   1.00
H2       0.91229    0.59190    0.83390   1.00
H2       0.95443    0.56582    0.81540   1.00
O_3      0.98252    0.43615    0.64500   1.00
C4       0.91463    0.41475    0.68600   1.00
C3c      0.90359    0.44788    0.70743   1.00
H1       0.89473    0.47408    0.69225   1.00
C3d      0.92553    0.38073    0.70635   1.00
C3       0.90429    0.44801    0.74854   1.00
O2       0.88859    0.47976    0.76748   1.00
C3       0.92698    0.38100    0.74727   1.00
H1       0.93685    0.35468    0.76157   1.00
C2       0.91631    0.41440    0.76939   1.00
C5       1.01052    0.40595    0.64379   1.00
H2       1.01958    0.39880    0.61338   1.00
H2       0.99909    0.37880    0.65766   1.00
C5       1.04617    0.41980    0.66622   1.00
H2       1.03692    0.42799    0.69629   1.00
H2       1.05755    0.44670    0.65191   1.00
C5       1.07768    0.38804    0.66754   1.00
H2       1.08686    0.37952    0.63760   1.00
H2       1.06679    0.36165    0.68303   1.00
H2       1.10384    0.39899    0.68330   1.00
C5       0.90789    0.32416    0.67605   1.00
C5       0.91825    0.50724    0.77570   1.00
H2       0.88759    0.33948    0.65588   1.00
H2       0.89113    0.31418    0.70212   1.00
H2       0.93162    0.51793    0.74800   1.00
H2       0.94223    0.49468    0.79395   1.00
H2       0.92562    0.54640    0.85555   1.00
H2       0.88186    0.28258    0.60750   1.00
H2       0.86824    0.25831    0.65266   1.00
C2       0.91734    0.41393    0.56105   1.00
C3       0.88237    0.40510    0.58097   1.00
O2       0.85202    0.38694    0.56174   1.00
C3       0.95041    0.42479    0.58326   1.00
H1       0.97732    0.43270    0.56885   1.00
C3a      0.88149    0.40630    0.62213   1.00
H1       0.85516    0.39731    0.63702   1.00
C3b      0.94978    0.42474    0.62422   1.00
C4       0.91518    0.41538    0.64400   1.00
O_3      0.93947    0.34834    0.68667   1.00
C5       0.82279    0.41433    0.55220   1.00
H2       0.81092    0.42874    0.57891   1.00
C5       0.79007    0.39191    0.53166   1.00
H2       0.83438    0.43727    0.53226   1.00
H2       0.77202    0.37707    0.55423   1.00
H2       0.80396    0.36843    0.51399   1.00
C5       0.76440    0.41822    0.50569   1.00
H2       0.75329    0.44321    0.52311   1.00
H2       0.73908    0.40160    0.49391   1.00
H2       0.78104    0.42940    0.47994   1.00
C5       0.92462    0.28868    0.65520   1.00
H2       0.93938    0.26983    0.67718   1.00
H2       0.94757    0.29889    0.63455   1.00
C5       0.89302    0.26571    0.63303   1.00
H2       0.90543    0.23799    0.62166   1.00
C5       1.04091    0.79727    0.39830   1.00
H2       1.02761    0.81255    0.37302   1.00
H2       1.06190    0.77599    0.38576   1.00
C5       1.06249    0.82719    0.42435   1.00
H2       1.09190    0.83390    0.41229   1.00
H2       1.06582    0.81540    0.45443   1.00
O_3      0.93615    0.64500    0.48252   1.00
C4       0.91475    0.68600    0.41463   1.00
C3c      0.94788    0.70743    0.40359   1.00
H1       0.97408    0.69225    0.39473   1.00
C3d      0.88073    0.70635    0.42553   1.00
C3       0.94801    0.74854    0.40429   1.00
O2       0.97976    0.76748    0.38859   1.00
C3       0.88100    0.74727    0.42698   1.00
H1       0.85468    0.76157    0.43685   1.00
C2       0.91440    0.76939    0.41631   1.00
C5       0.90595    0.64379    0.51052   1.00
H2       0.89880    0.61338    0.51958   1.00
H2       0.87880    0.65766    0.49909   1.00
C5       0.91980    0.66622    0.54617   1.00
H2       0.92799    0.69629    0.53692   1.00
H2       0.94670    0.65191    0.55755   1.00
C5       0.88804    0.66754    0.57768   1.00
H2       0.87952    0.63760    0.58686   1.00
H2       0.86165    0.68303    0.56679   1.00
H2       0.89899    0.68330    0.60384   1.00
C5       0.82416    0.67605    0.40789   1.00
C5       1.00724    0.77570    0.41825   1.00
H2       0.83948    0.65588    0.38759   1.00
H2       0.81418    0.70212    0.39113   1.00
H2       1.01793    0.74800    0.43162   1.00
H2       0.99468    0.79395    0.44223   1.00
H2       1.04640    0.85555    0.42562   1.00
H2       0.78258    0.60750    0.38186   1.00
H2       0.75831    0.65266    0.36824   1.00
C2       0.91393    0.56105    0.41734   1.00
C3       0.90510    0.58097    0.38237   1.00
O2       0.88694    0.56174    0.35202   1.00
C3       0.92479    0.58326    0.45041   1.00
H1       0.93270    0.56885    0.47732   1.00
C3a      0.90630    0.62213    0.38149   1.00
H1       0.89731    0.63702    0.35516   1.00
C3b      0.92474    0.62422    0.44978   1.00
C4       0.91538    0.64400    0.41518   1.00
O_3      0.84834    0.68667    0.43947   1.00
C5       0.91433    0.55220    0.32279   1.00
H2       0.92874    0.57891    0.31092   1.00
C5       0.89191    0.53166    0.29007   1.00
H2       0.93727    0.53226    0.33438   1.00
H2       0.87707    0.55423    0.27202   1.00
H2       0.86843    0.51399    0.30396   1.00
C5       0.91822    0.50569    0.26440   1.00
H2       0.94321    0.52311    0.25329   1.00
H2       0.90160    0.49391    0.23908   1.00
H2       0.92940    0.47994    0.28104   1.00
C5       0.78868    0.65520    0.42462   1.00
H2       0.76983    0.67718    0.43938   1.00
H2       0.79889    0.63455    0.44757   1.00
C5       0.76571    0.63303    0.39302   1.00
H2       0.73799    0.62166    0.40543   1.00
C5       0.53273    0.39830    0.28909   1.00
H2       0.51745    0.37302    0.30239   1.00
H2       0.55401    0.38576    0.26810   1.00
C5       0.50281    0.42435    0.26751   1.00
H2       0.49610    0.41229    0.23810   1.00
H2       0.51460    0.45443    0.26418   1.00
O_3      0.68500    0.48252    0.39385   1.00
C4       0.64400    0.41463    0.41525   1.00
C3c      0.62257    0.40359    0.38212   1.00
H1       0.63775    0.39473    0.35592   1.00
C3d      0.62365    0.42553    0.44927   1.00
C3       0.58146    0.40429    0.38199   1.00
O2       0.56252    0.38859    0.35024   1.00
C3       0.58273    0.42698    0.44900   1.00
H1       0.56843    0.43685    0.47532   1.00
C2       0.56061    0.41631    0.41560   1.00
C5       0.68621    0.51052    0.42405   1.00
H2       0.71662    0.51958    0.43120   1.00
H2       0.67234    0.49909    0.45120   1.00
C5       0.66378    0.54617    0.41020   1.00
H2       0.63371    0.53692    0.40201   1.00
H2       0.67809    0.55755    0.38330   1.00
C5       0.66246    0.57768    0.44196   1.00
H2       0.69240    0.58686    0.45048   1.00
H2       0.64697    0.56679    0.46835   1.00
H2       0.64670    0.60384    0.43101   1.00
C5       0.65395    0.40789    0.50584   1.00
C5       0.55430    0.41825    0.32276   1.00
H2       0.67412    0.38759    0.49052   1.00
H2       0.62788    0.39113    0.51582   1.00
H2       0.58200    0.43162    0.31207   1.00
H2       0.53605    0.44223    0.33532   1.00
H2       0.47445    0.42562    0.28360   1.00
H2       0.72250    0.38186    0.54742   1.00
H2       0.67734    0.36824    0.57169   1.00
C2       0.76895    0.41734    0.41607   1.00
C3       0.74903    0.38237    0.42490   1.00
O2       0.76826    0.35202    0.44306   1.00
C3       0.74674    0.45041    0.40521   1.00
H1       0.76115    0.47732    0.39730   1.00
C3a      0.70787    0.38149    0.42370   1.00
H1       0.69298    0.35516    0.43269   1.00
C3b      0.70578    0.44978    0.40526   1.00
C4       0.68600    0.41518    0.41462   1.00
O_3      0.64333    0.43947    0.48166   1.00
C5       0.77780    0.32279    0.41567   1.00
H2       0.75109    0.31092    0.40126   1.00
C5       0.79834    0.29007    0.43809   1.00
H2       0.79774    0.33438    0.39273   1.00
H2       0.77577    0.27202    0.45293   1.00
H2       0.81601    0.30396    0.46157   1.00
C5       0.82431    0.26440    0.41178   1.00
H2       0.80689    0.25329    0.38679   1.00
H2       0.83609    0.23908    0.42840   1.00
H2       0.85006    0.28104    0.40060   1.00
C5       0.67480    0.42462    0.54132   1.00
H2       0.65282    0.43938    0.56017   1.00
H2       0.69545    0.44757    0.53111   1.00
C5       0.69697    0.39302    0.56429   1.00
H2       0.70834    0.40543    0.59201   1.00
C5       1.29727    0.39830    0.54091   1.00
H2       1.31255    0.37302    0.52761   1.00
H2       1.27599    0.38576    0.56190   1.00
C5       1.32719    0.42435    0.56249   1.00
H2       1.33390    0.41229    0.59190   1.00
H2       1.31540    0.45443    0.56582   1.00
O_3      1.14500    0.48252    0.43615   1.00
C4       1.18600    0.41463    0.41475   1.00
C3c      1.20743    0.40359    0.44788   1.00
H1       1.19225    0.39473    0.47408   1.00
C3d      1.20635    0.42553    0.38073   1.00
C3       1.24854    0.40429    0.44801   1.00
O2       1.26748    0.38859    0.47976   1.00
C3       1.24727    0.42698    0.38100   1.00
H1       1.26157    0.43685    0.35468   1.00
C2       1.26939    0.41631    0.41440   1.00
C5       1.14379    0.51052    0.40595   1.00
H2       1.11338    0.51958    0.39880   1.00
H2       1.15766    0.49909    0.37880   1.00
C5       1.16622    0.54617    0.41980   1.00
H2       1.19629    0.53692    0.42799   1.00
H2       1.15191    0.55755    0.44670   1.00
C5       1.16754    0.57768    0.38804   1.00
H2       1.13760    0.58686    0.37952   1.00
H2       1.18303    0.56679    0.36165   1.00
H2       1.18330    0.60384    0.39899   1.00
C5       1.17605    0.40789    0.32416   1.00
C5       1.27570    0.41825    0.50724   1.00
H2       1.15588    0.38759    0.33948   1.00
H2       1.20212    0.39113    0.31418   1.00
H2       1.24800    0.43162    0.51793   1.00
H2       1.29395    0.44223    0.49468   1.00
H2       1.35555    0.42562    0.54640   1.00
H2       1.10750    0.38186    0.28258   1.00
H2       1.15266    0.36824    0.25831   1.00
C2       1.06105    0.41734    0.41393   1.00
C3       1.08097    0.38237    0.40510   1.00
O2       1.06174    0.35202    0.38694   1.00
C3       1.08326    0.45041    0.42479   1.00
H1       1.06885    0.47732    0.43270   1.00
C3a      1.12213    0.38149    0.40630   1.00
H1       1.13702    0.35516    0.39731   1.00
C3b      1.12422    0.44978    0.42474   1.00
C4       1.14400    0.41518    0.41538   1.00
O_3      1.18667    0.43947    0.34834   1.00
C5       1.05220    0.32279    0.41433   1.00
H2       1.07891    0.31092    0.42874   1.00
C5       1.03166    0.29007    0.39191   1.00
H2       1.03226    0.33438    0.43727   1.00
H2       1.05423    0.27202    0.37707   1.00
H2       1.01399    0.30396    0.36843   1.00
C5       1.00569    0.26440    0.41822   1.00
H2       1.02311    0.25329    0.44321   1.00
H2       0.99391    0.23908    0.40160   1.00
H2       0.97994    0.28104    0.42940   1.00
C5       1.15520    0.42462    0.28868   1.00
H2       1.17718    0.43938    0.26983   1.00
H2       1.13455    0.44757    0.29889   1.00
C5       1.13303    0.39302    0.26571   1.00
H2       1.12166    0.40543    0.23799   1.00
C5       0.78909    0.03273    0.39830   1.00
H2       0.80239    0.01745    0.37302   1.00
H2       0.76810    0.05401    0.38576   1.00
C5       0.76751    0.00281    0.42435   1.00
H2       0.73810    -0.00390   0.41229   1.00
H2       0.76418    0.01460    0.45443   1.00
O_3      0.89385    0.18500    0.48252   1.00
C4       0.91525    0.14400    0.41463   1.00
C3c      0.88212    0.12257    0.40359   1.00
H1       0.85592    0.13775    0.39473   1.00
C3d      0.94927    0.12365    0.42553   1.00
C3       0.88199    0.08146    0.40429   1.00
O2       0.85024    0.06252    0.38859   1.00
C3       0.94900    0.08273    0.42698   1.00
H1       0.97532    0.06843    0.43685   1.00
C2       0.91560    0.06061    0.41631   1.00
C5       0.92405    0.18621    0.51052   1.00
H2       0.93120    0.21662    0.51958   1.00
H2       0.95120    0.17234    0.49909   1.00
C5       0.91020    0.16378    0.54617   1.00
H2       0.90201    0.13371    0.53692   1.00
H2       0.88330    0.17809    0.55755   1.00
C5       0.94196    0.16246    0.57768   1.00
H2       0.95048    0.19240    0.58686   1.00
H2       0.96835    0.14697    0.56679   1.00
H2       0.93101    0.14670    0.60384   1.00
C5       1.00584    0.15395    0.40789   1.00
C5       0.82276    0.05430    0.41825   1.00
H2       0.99052    0.17412    0.38759   1.00
H2       1.01582    0.12788    0.39113   1.00
H2       0.81207    0.08200    0.43162   1.00
H2       0.83532    0.03605    0.44223   1.00
H2       0.78360    -0.02555   0.42562   1.00
H2       1.04742    0.22250    0.38186   1.00
H2       1.07169    0.17734    0.36824   1.00
C2       0.91607    0.26895    0.41734   1.00
C3       0.92490    0.24903    0.38237   1.00
O2       0.94306    0.26826    0.35202   1.00
C3       0.90521    0.24674    0.45041   1.00
H1       0.89730    0.26115    0.47732   1.00
C3a      0.92370    0.20787    0.38149   1.00
H1       0.93269    0.19298    0.35516   1.00
C3b      0.90526    0.20578    0.44978   1.00
C4       0.91462    0.18600    0.41518   1.00
O_3      0.98166    0.14333    0.43947   1.00
C5       0.91567    0.27780    0.32279   1.00
H2       0.90126    0.25109    0.31092   1.00
C5       0.93809    0.29834    0.29007   1.00
H2       0.89273    0.29774    0.33438   1.00
H2       0.95293    0.27577    0.27202   1.00
H2       0.96157    0.31601    0.30396   1.00
C5       0.91178    0.32431    0.26440   1.00
H2       0.88679    0.30689    0.25329   1.00
H2       0.92840    0.33609    0.23908   1.00
H2       0.90060    0.35006    0.28104   1.00
C5       1.04132    0.17480    0.42462   1.00
H2       1.06017    0.15282    0.43938   1.00
H2       1.03111    0.19545    0.44757   1.00
C5       1.06429    0.19697    0.39302   1.00
H2       1.09201    0.20834    0.40543   1.00
C5       0.89830    0.28909    0.03273   1.00
H2       0.87302    0.30239    0.01745   1.00
H2       0.88576    0.26810    0.05401   1.00
C5       0.92435    0.26751    0.00281   1.00
H2       0.91229    0.23810    -0.00390   1.00
H2       0.95443    0.26418    0.01460   1.00
O_3      0.98252    0.39385    0.18500   1.00
C4       0.91463    0.41525    0.14400   1.00
C3c      0.90359    0.38212    0.12257   1.00
H1       0.89473    0.35592    0.13775   1.00
C3d      0.92553    0.44927    0.12365   1.00
C3       0.90429    0.38199    0.08146   1.00
O2       0.88859    0.35024    0.06252   1.00
C3       0.92698    0.44900    0.08273   1.00
H1       0.93685    0.47532    0.06843   1.00
C2       0.91631    0.41560    0.06061   1.00
C5       1.01052    0.42405    0.18621   1.00
H2       1.01958    0.43120    0.21662   1.00
H2       0.99909    0.45120    0.17234   1.00
C5       1.04617    0.41020    0.16378   1.00
H2       1.03692    0.40201    0.13371   1.00
H2       1.05755    0.38330    0.17809   1.00
C5       1.07768    0.44196    0.16246   1.00
H2       1.08686    0.45048    0.19240   1.00
H2       1.06679    0.46835    0.14697   1.00
H2       1.10384    0.43101    0.14670   1.00
C5       0.90789    0.50584    0.15395   1.00
C5       0.91825    0.32276    0.05430   1.00
H2       0.88759    0.49052    0.17412   1.00
H2       0.89113    0.51582    0.12788   1.00
H2       0.93162    0.31207    0.08200   1.00
H2       0.94223    0.33532    0.03605   1.00
H2       0.92562    0.28360    -0.02555   1.00
H2       0.88186    0.54742    0.22250   1.00
H2       0.86824    0.57169    0.17734   1.00
C2       0.91734    0.41607    0.26895   1.00
C3       0.88237    0.42490    0.24903   1.00
O2       0.85202    0.44306    0.26826   1.00
C3       0.95041    0.40521    0.24674   1.00
H1       0.97732    0.39730    0.26115   1.00
C3a      0.88149    0.42370    0.20787   1.00
H1       0.85516    0.43269    0.19298   1.00
C3b      0.94978    0.40526    0.20578   1.00
C4       0.91518    0.41462    0.18600   1.00
O_3      0.93947    0.48166    0.14333   1.00
C5       0.82279    0.41567    0.27780   1.00
H2       0.81092    0.40126    0.25109   1.00
C5       0.79007    0.43809    0.29834   1.00
H2       0.83438    0.39273    0.29774   1.00
H2       0.77202    0.45293    0.27577   1.00
H2       0.80396    0.46157    0.31601   1.00
C5       0.76440    0.41178    0.32431   1.00
H2       0.75329    0.38679    0.30689   1.00
H2       0.73908    0.42840    0.33609   1.00
H2       0.78104    0.40060    0.35006   1.00
C5       0.92462    0.54132    0.17480   1.00
H2       0.93938    0.56017    0.15282   1.00
H2       0.94757    0.53111    0.19545   1.00
C5       0.89302    0.56429    0.19697   1.00
H2       0.90543    0.59201    0.20834   1.00
