data_IRMOF10_SG202_interpen_Ligand4cp_label_x.

_audit_creation_method             'generated by an auxiliary program of Tobunporous'

_symmetry_space_group_name_H-M     'P 1'
_symmetry_Int_Tables_number        1
_symmetry_cell_setting             triclinic

_cell_length_a                    34.2800
_cell_length_b                    34.2800
_cell_length_c                    34.2800
_cell_angle_alpha                 90.0000
_cell_angle_beta                  90.0000
_cell_angle_gamma                 90.0000

loop_
_atom_site_label
_atom_site_fract_x
_atom_site_fract_y
_atom_site_fract_z
_atom_site_occupancy
O1       0.75000    0.75000    0.75000   1.00
Zn1      0.71720    0.78280    0.78280   1.00
Zn1      0.78280    0.71720    0.78280   1.00
Zn1      0.78280    0.78280    0.71720   1.00
Zn1      0.71720    0.71720    0.71720   1.00
O2       0.72650    0.77350    0.83820   1.00
O2       0.72650    0.83820    0.77350   1.00
O2       0.66180    0.77350    0.77350   1.00
O2       0.77350    0.72650    0.83820   1.00
O2       0.83820    0.72650    0.77350   1.00
O2       0.77350    0.66180    0.77350   1.00
O2       0.77350    0.83820    0.72650   1.00
O2       0.83820    0.77350    0.72650   1.00
O2       0.77350    0.77350    0.66180   1.00
O2       0.66180    0.72650    0.72650   1.00
O2       0.72650    0.66180    0.72650   1.00
O2       0.72650    0.72650    0.66180   1.00
C1       0.75000    0.75000    0.85520   1.00
C1       0.75000    0.85520    0.75000   1.00
C1       0.64480    0.75000    0.75000   1.00
C1       0.85520    0.75000    0.75000   1.00
C1       0.75000    0.64480    0.75000   1.00
C1       0.75000    0.75000    0.64480   1.00
O1       0.25000    0.25000    0.75000   1.00
Zn1      0.21720    0.28280    0.78280   1.00
Zn1      0.28280    0.21720    0.78280   1.00
Zn1      0.28280    0.28280    0.71720   1.00
Zn1      0.21720    0.21720    0.71720   1.00
O2       0.22650    0.27350    0.83820   1.00
O2       0.22650    0.33820    0.77350   1.00
O2       0.16180    0.27350    0.77350   1.00
O2       0.27350    0.22650    0.83820   1.00
O2       0.33820    0.22650    0.77350   1.00
O2       0.27350    0.16180    0.77350   1.00
O2       0.27350    0.33820    0.72650   1.00
O2       0.33820    0.27350    0.72650   1.00
O2       0.27350    0.27350    0.66180   1.00
O2       0.16180    0.22650    0.72650   1.00
O2       0.22650    0.16180    0.72650   1.00
O2       0.22650    0.22650    0.66180   1.00
C1       0.25000    0.25000    0.85520   1.00
C1       0.25000    0.35520    0.75000   1.00
C1       0.14480    0.25000    0.75000   1.00
C1       0.35520    0.25000    0.75000   1.00
C1       0.25000    0.14480    0.75000   1.00
C1       0.25000    0.25000    0.64480   1.00
O1       0.25000    0.75000    0.25000   1.00
Zn1      0.21720    0.78280    0.28280   1.00
Zn1      0.28280    0.71720    0.28280   1.00
Zn1      0.28280    0.78280    0.21720   1.00
Zn1      0.21720    0.71720    0.21720   1.00
O2       0.22650    0.77350    0.33820   1.00
O2       0.22650    0.83820    0.27350   1.00
O2       0.16180    0.77350    0.27350   1.00
O2       0.27350    0.72650    0.33820   1.00
O2       0.33820    0.72650    0.27350   1.00
O2       0.27350    0.66180    0.27350   1.00
O2       0.27350    0.83820    0.22650   1.00
O2       0.33820    0.77350    0.22650   1.00
O2       0.27350    0.77350    0.16180   1.00
O2       0.16180    0.72650    0.22650   1.00
O2       0.22650    0.66180    0.22650   1.00
O2       0.22650    0.72650    0.16180   1.00
C1       0.25000    0.75000    0.35520   1.00
C1       0.25000    0.85520    0.25000   1.00
C1       0.14480    0.75000    0.25000   1.00
C1       0.35520    0.75000    0.25000   1.00
C1       0.25000    0.64480    0.25000   1.00
C1       0.25000    0.75000    0.14480   1.00
O1       0.75000    0.25000    0.25000   1.00
Zn1      0.71720    0.28280    0.28280   1.00
Zn1      0.78280    0.21720    0.28280   1.00
Zn1      0.78280    0.28280    0.21720   1.00
Zn1      0.71720    0.21720    0.21720   1.00
O2       0.72650    0.27350    0.33820   1.00
O2       0.72650    0.33820    0.27350   1.00
O2       0.66180    0.27350    0.27350   1.00
O2       0.77350    0.22650    0.33820   1.00
O2       0.83820    0.22650    0.27350   1.00
O2       0.77350    0.16180    0.27350   1.00
O2       0.77350    0.33820    0.22650   1.00
O2       0.83820    0.27350    0.22650   1.00
O2       0.77350    0.27350    0.16180   1.00
O2       0.66180    0.22650    0.22650   1.00
O2       0.72650    0.16180    0.22650   1.00
O2       0.72650    0.22650    0.16180   1.00
C1       0.75000    0.25000    0.35520   1.00
C1       0.75000    0.35520    0.25000   1.00
C1       0.64480    0.25000    0.25000   1.00
C1       0.85520    0.25000    0.25000   1.00
C1       0.75000    0.14480    0.25000   1.00
C1       0.75000    0.25000    0.14480   1.00
O1       0.25000    0.25000    0.25000   1.00
Zn1      0.28280    0.21720    0.21720   1.00
Zn1      0.21720    0.28280    0.21720   1.00
Zn1      0.21720    0.21720    0.28280   1.00
Zn1      0.28280    0.28280    0.28280   1.00
O2       0.27350    0.22650    0.16180   1.00
O2       0.27350    0.16180    0.22650   1.00
O2       0.33820    0.22650    0.22650   1.00
O2       0.22650    0.27350    0.16180   1.00
O2       0.16180    0.27350    0.22650   1.00
O2       0.22650    0.33820    0.22650   1.00
O2       0.22650    0.16180    0.27350   1.00
O2       0.16180    0.22650    0.27350   1.00
O2       0.22650    0.22650    0.33820   1.00
O2       0.33820    0.27350    0.27350   1.00
O2       0.27350    0.33820    0.27350   1.00
O2       0.27350    0.27350    0.33820   1.00
C1       0.25000    0.25000    0.14480   1.00
C1       0.25000    0.14480    0.25000   1.00
C1       0.35520    0.25000    0.25000   1.00
C1       0.14480    0.25000    0.25000   1.00
C1       0.25000    0.35520    0.25000   1.00
C1       0.25000    0.25000    0.35520   1.00
O1       0.75000    0.75000    0.25000   1.00
Zn1      0.78280    0.71720    0.21720   1.00
Zn1      0.71720    0.78280    0.21720   1.00
Zn1      0.71720    0.71720    0.28280   1.00
Zn1      0.78280    0.78280    0.28280   1.00
O2       0.77350    0.72650    0.16180   1.00
O2       0.77350    0.66180    0.22650   1.00
O2       0.83820    0.72650    0.22650   1.00
O2       0.72650    0.77350    0.16180   1.00
O2       0.66180    0.77350    0.22650   1.00
O2       0.72650    0.83820    0.22650   1.00
O2       0.72650    0.66180    0.27350   1.00
O2       0.66180    0.72650    0.27350   1.00
O2       0.72650    0.72650    0.33820   1.00
O2       0.83820    0.77350    0.27350   1.00
O2       0.77350    0.83820    0.27350   1.00
O2       0.77350    0.77350    0.33820   1.00
C1       0.75000    0.75000    0.14480   1.00
C1       0.75000    0.64480    0.25000   1.00
C1       0.85520    0.75000    0.25000   1.00
C1       0.64480    0.75000    0.25000   1.00
C1       0.75000    0.85520    0.25000   1.00
C1       0.75000    0.75000    0.35520   1.00
O1       0.75000    0.25000    0.75000   1.00
Zn1      0.78280    0.21720    0.71720   1.00
Zn1      0.71720    0.28280    0.71720   1.00
Zn1      0.71720    0.21720    0.78280   1.00
Zn1      0.78280    0.28280    0.78280   1.00
O2       0.77350    0.22650    0.66180   1.00
O2       0.77350    0.16180    0.72650   1.00
O2       0.83820    0.22650    0.72650   1.00
O2       0.72650    0.27350    0.66180   1.00
O2       0.66180    0.27350    0.72650   1.00
O2       0.72650    0.33820    0.72650   1.00
O2       0.72650    0.16180    0.77350   1.00
O2       0.66180    0.22650    0.77350   1.00
O2       0.72650    0.22650    0.83820   1.00
O2       0.83820    0.27350    0.77350   1.00
O2       0.77350    0.33820    0.77350   1.00
O2       0.77350    0.27350    0.83820   1.00
C1       0.75000    0.25000    0.64480   1.00
C1       0.75000    0.14480    0.75000   1.00
C1       0.85520    0.25000    0.75000   1.00
C1       0.64480    0.25000    0.75000   1.00
C1       0.75000    0.35520    0.75000   1.00
C1       0.75000    0.25000    0.85520   1.00
O1       0.25000    0.75000    0.75000   1.00
Zn1      0.28280    0.71720    0.71720   1.00
Zn1      0.21720    0.78280    0.71720   1.00
Zn1      0.21720    0.71720    0.78280   1.00
Zn1      0.28280    0.78280    0.78280   1.00
O2       0.27350    0.72650    0.66180   1.00
O2       0.27350    0.66180    0.72650   1.00
O2       0.33820    0.72650    0.72650   1.00
O2       0.22650    0.77350    0.66180   1.00
O2       0.16180    0.77350    0.72650   1.00
O2       0.22650    0.83820    0.72650   1.00
O2       0.22650    0.66180    0.77350   1.00
O2       0.16180    0.72650    0.77350   1.00
O2       0.22650    0.72650    0.83820   1.00
O2       0.33820    0.77350    0.77350   1.00
O2       0.27350    0.83820    0.77350   1.00
O2       0.27350    0.77350    0.83820   1.00
C1       0.25000    0.75000    0.64480   1.00
C1       0.25000    0.64480    0.75000   1.00
C1       0.35520    0.75000    0.75000   1.00
C1       0.14480    0.75000    0.75000   1.00
C1       0.25000    0.85520    0.75000   1.00
C1       0.25000    0.75000    0.85520   1.00
O1       0.91500    0.91500    0.91500   1.00
Zn1      0.88220    0.94780    0.94780   1.00
Zn1      0.94780    0.88220    0.94780   1.00
Zn1      0.94780    0.94780    0.88220   1.00
Zn1      0.88220    0.88220    0.88220   1.00
O2       0.89150    0.93850    1.00320   1.00
O2       0.89150    1.00320    0.93850   1.00
O2       0.82680    0.93850    0.93850   1.00
O2       0.93850    0.89150    1.00320   1.00
O2       1.00320    0.89150    0.93850   1.00
O2       0.93850    0.82680    0.93850   1.00
O2       0.93850    1.00320    0.89150   1.00
O2       1.00320    0.93850    0.89150   1.00
O2       0.93850    0.93850    0.82680   1.00
O2       0.82680    0.89150    0.89150   1.00
O2       0.89150    0.82680    0.89150   1.00
O2       0.89150    0.89150    0.82680   1.00
C1       0.91500    0.91500    1.02020   1.00
C1       0.91500    1.02020    0.91500   1.00
C1       0.80980    0.91500    0.91500   1.00
C1       1.02020    0.91500    0.91500   1.00
C1       0.91500    0.80980    0.91500   1.00
C1       0.91500    0.91500    0.80980   1.00
O1       0.41500    0.41500    0.91500   1.00
Zn1      0.38220    0.44780    0.94780   1.00
Zn1      0.44780    0.38220    0.94780   1.00
Zn1      0.44780    0.44780    0.88220   1.00
Zn1      0.38220    0.38220    0.88220   1.00
O2       0.39150    0.43850    1.00320   1.00
O2       0.39150    0.50320    0.93850   1.00
O2       0.32680    0.43850    0.93850   1.00
O2       0.43850    0.39150    1.00320   1.00
O2       0.50320    0.39150    0.93850   1.00
O2       0.43850    0.32680    0.93850   1.00
O2       0.43850    0.50320    0.89150   1.00
O2       0.50320    0.43850    0.89150   1.00
O2       0.43850    0.43850    0.82680   1.00
O2       0.32680    0.39150    0.89150   1.00
O2       0.39150    0.32680    0.89150   1.00
O2       0.39150    0.39150    0.82680   1.00
C1       0.41500    0.41500    1.02020   1.00
C1       0.41500    0.52020    0.91500   1.00
C1       0.30980    0.41500    0.91500   1.00
C1       0.52020    0.41500    0.91500   1.00
C1       0.41500    0.30980    0.91500   1.00
C1       0.41500    0.41500    0.80980   1.00
O1       0.41500    0.91500    0.41500   1.00
Zn1      0.38220    0.94780    0.44780   1.00
Zn1      0.44780    0.88220    0.44780   1.00
Zn1      0.44780    0.94780    0.38220   1.00
Zn1      0.38220    0.88220    0.38220   1.00
O2       0.39150    0.93850    0.50320   1.00
O2       0.39150    1.00320    0.43850   1.00
O2       0.32680    0.93850    0.43850   1.00
O2       0.43850    0.89150    0.50320   1.00
O2       0.50320    0.89150    0.43850   1.00
O2       0.43850    0.82680    0.43850   1.00
O2       0.43850    1.00320    0.39150   1.00
O2       0.50320    0.93850    0.39150   1.00
O2       0.43850    0.93850    0.32680   1.00
O2       0.32680    0.89150    0.39150   1.00
O2       0.39150    0.82680    0.39150   1.00
O2       0.39150    0.89150    0.32680   1.00
C1       0.41500    0.91500    0.52020   1.00
C1       0.41500    1.02020    0.41500   1.00
C1       0.30980    0.91500    0.41500   1.00
C1       0.52020    0.91500    0.41500   1.00
C1       0.41500    0.80980    0.41500   1.00
C1       0.41500    0.91500    0.30980   1.00
O1       0.91500    0.41500    0.41500   1.00
Zn1      0.88220    0.44780    0.44780   1.00
Zn1      0.94780    0.38220    0.44780   1.00
Zn1      0.94780    0.44780    0.38220   1.00
Zn1      0.88220    0.38220    0.38220   1.00
O2       0.89150    0.43850    0.50320   1.00
O2       0.89150    0.50320    0.43850   1.00
O2       0.82680    0.43850    0.43850   1.00
O2       0.93850    0.39150    0.50320   1.00
O2       1.00320    0.39150    0.43850   1.00
O2       0.93850    0.32680    0.43850   1.00
O2       0.93850    0.50320    0.39150   1.00
O2       1.00320    0.43850    0.39150   1.00
O2       0.93850    0.43850    0.32680   1.00
O2       0.82680    0.39150    0.39150   1.00
O2       0.89150    0.32680    0.39150   1.00
O2       0.89150    0.39150    0.32680   1.00
C1       0.91500    0.41500    0.52020   1.00
C1       0.91500    0.52020    0.41500   1.00
C1       0.80980    0.41500    0.41500   1.00
C1       1.02020    0.41500    0.41500   1.00
C1       0.91500    0.30980    0.41500   1.00
C1       0.91500    0.41500    0.30980   1.00
O1       0.41500    0.41500    0.41500   1.00
Zn1      0.44780    0.38220    0.38220   1.00
Zn1      0.38220    0.44780    0.38220   1.00
Zn1      0.38220    0.38220    0.44780   1.00
Zn1      0.44780    0.44780    0.44780   1.00
O2       0.43850    0.39150    0.32680   1.00
O2       0.43850    0.32680    0.39150   1.00
O2       0.50320    0.39150    0.39150   1.00
O2       0.39150    0.43850    0.32680   1.00
O2       0.32680    0.43850    0.39150   1.00
O2       0.39150    0.50320    0.39150   1.00
O2       0.39150    0.32680    0.43850   1.00
O2       0.32680    0.39150    0.43850   1.00
O2       0.39150    0.39150    0.50320   1.00
O2       0.50320    0.43850    0.43850   1.00
O2       0.43850    0.50320    0.43850   1.00
O2       0.43850    0.43850    0.50320   1.00
C1       0.41500    0.41500    0.30980   1.00
C1       0.41500    0.30980    0.41500   1.00
C1       0.52020    0.41500    0.41500   1.00
C1       0.30980    0.41500    0.41500   1.00
C1       0.41500    0.52020    0.41500   1.00
C1       0.41500    0.41500    0.52020   1.00
O1       0.91500    0.91500    0.41500   1.00
Zn1      0.94780    0.88220    0.38220   1.00
Zn1      0.88220    0.94780    0.38220   1.00
Zn1      0.88220    0.88220    0.44780   1.00
Zn1      0.94780    0.94780    0.44780   1.00
O2       0.93850    0.89150    0.32680   1.00
O2       0.93850    0.82680    0.39150   1.00
O2       1.00320    0.89150    0.39150   1.00
O2       0.89150    0.93850    0.32680   1.00
O2       0.82680    0.93850    0.39150   1.00
O2       0.89150    1.00320    0.39150   1.00
O2       0.89150    0.82680    0.43850   1.00
O2       0.82680    0.89150    0.43850   1.00
O2       0.89150    0.89150    0.50320   1.00
O2       1.00320    0.93850    0.43850   1.00
O2       0.93850    1.00320    0.43850   1.00
O2       0.93850    0.93850    0.50320   1.00
C1       0.91500    0.91500    0.30980   1.00
C1       0.91500    0.80980    0.41500   1.00
C1       1.02020    0.91500    0.41500   1.00
C1       0.80980    0.91500    0.41500   1.00
C1       0.91500    1.02020    0.41500   1.00
C1       0.91500    0.91500    0.52020   1.00
O1       0.91500    0.41500    0.91500   1.00
Zn1      0.94780    0.38220    0.88220   1.00
Zn1      0.88220    0.44780    0.88220   1.00
Zn1      0.88220    0.38220    0.94780   1.00
Zn1      0.94780    0.44780    0.94780   1.00
O2       0.93850    0.39150    0.82680   1.00
O2       0.93850    0.32680    0.89150   1.00
O2       1.00320    0.39150    0.89150   1.00
O2       0.89150    0.43850    0.82680   1.00
O2       0.82680    0.43850    0.89150   1.00
O2       0.89150    0.50320    0.89150   1.00
O2       0.89150    0.32680    0.93850   1.00
O2       0.82680    0.39150    0.93850   1.00
O2       0.89150    0.39150    1.00320   1.00
O2       1.00320    0.43850    0.93850   1.00
O2       0.93850    0.50320    0.93850   1.00
O2       0.93850    0.43850    1.00320   1.00
C1       0.91500    0.41500    0.80980   1.00
C1       0.91500    0.30980    0.91500   1.00
C1       1.02020    0.41500    0.91500   1.00
C1       0.80980    0.41500    0.91500   1.00
C1       0.91500    0.52020    0.91500   1.00
C1       0.91500    0.41500    1.02020   1.00
O1       0.41500    0.91500    0.91500   1.00
Zn1      0.44780    0.88220    0.88220   1.00
Zn1      0.38220    0.94780    0.88220   1.00
Zn1      0.38220    0.88220    0.94780   1.00
Zn1      0.44780    0.94780    0.94780   1.00
O2       0.43850    0.89150    0.82680   1.00
O2       0.43850    0.82680    0.89150   1.00
O2       0.50320    0.89150    0.89150   1.00
O2       0.39150    0.93850    0.82680   1.00
O2       0.32680    0.93850    0.89150   1.00
O2       0.39150    1.00320    0.89150   1.00
O2       0.39150    0.82680    0.93850   1.00
O2       0.32680    0.89150    0.93850   1.00
O2       0.39150    0.89150    1.00320   1.00
O2       0.50320    0.93850    0.93850   1.00
O2       0.43850    1.00320    0.93850   1.00
O2       0.43850    0.93850    1.00320   1.00
C1       0.41500    0.91500    0.80980   1.00
C1       0.41500    0.80980    0.91500   1.00
C1       0.52020    0.91500    0.91500   1.00
C1       0.30980    0.91500    0.91500   1.00
C1       0.41500    1.02020    0.91500   1.00
C1       0.41500    0.91500    1.02020   1.00
C4       0.75460    0.74866    0.98025   1.00
C4       0.75514    0.74721    1.02191   1.00
C3       0.76692    0.78219    0.95897   1.00
C3       0.77180    0.77748    1.04504   1.00
C3       0.74127    0.71560    0.95854   1.00
C3       0.73856    0.71442    1.04170   1.00
C2       0.75534    0.75095    0.89595   1.00
C2       0.75453    0.74521    1.10622   1.00
C3       0.76749    0.78331    0.91811   1.00
C3       0.77137    0.77667    1.08591   1.00
C3       0.74252    0.71784    0.91696   1.00
C3       0.73851    0.71482    1.08336   1.00
H1       0.77558    0.80721    0.97237   1.00
H1       0.78522    0.80107    1.03306   1.00
C5       0.72698    0.68162    0.97835   1.00
C5       0.72282    0.68230    1.01998   1.00
H1       0.77685    0.80831    0.90451   1.00
H1       0.78373    0.79948    1.10091   1.00
H1       0.73353    0.69483    0.90052   1.00
H1       0.72675    0.69216    1.09848   1.00
C6       0.71690    0.64539    0.95515   1.00
C6       0.70168    0.64980    1.04119   1.00
H2       0.73959    0.64031    0.93345   1.00
H2       0.68246    0.66250    1.06310   1.00
H2       0.71900    0.61916    0.97286   1.00
H2       0.68095    0.63501    1.02228   1.00
C6       0.67537    0.64717    0.93606   1.00
C6       0.72994    0.61880    1.05942   1.00
H2       0.67088    0.67589    0.92292   1.00
H2       0.75422    0.63365    1.07383   1.00
C6       0.66522    0.61565    0.90459   1.00
C6       0.71221    0.58894    1.08911   1.00
H2       0.65383    0.64520    0.95949   1.00
H2       0.74315    0.60243    1.03546   1.00
C6       0.69052    0.62044    0.86735   1.00
C6       0.69836    0.60934    1.12708   1.00
C6       0.67025    0.57373    0.92074   1.00
C6       0.67770    0.56598    1.07107   1.00
C6       0.62187    0.62084    0.89245   1.00
C6       0.74438    0.55914    1.10054   1.00
H2       0.68810    0.64996    0.85558   1.00
H2       0.72190    0.62634    1.14020   1.00
H2       0.72121    0.61478    0.87330   1.00
H2       0.67402    0.62900    1.12154   1.00
H2       0.68140    0.60012    0.84459   1.00
H2       0.68857    0.58803    1.14863   1.00
H2       0.66046    0.55206    0.89955   1.00
H2       0.66738    0.54335    1.09098   1.00
H2       0.70078    0.56761    0.92725   1.00
H2       0.65315    0.58525    1.06494   1.00
H2       0.65337    0.56983    0.94745   1.00
H2       0.68646    0.55200    1.04385   1.00
H2       0.61681    0.64991    0.88042   1.00
H2       0.76933    0.57385    1.11383   1.00
H2       0.61345    0.59959    0.87025   1.00
H2       0.73345    0.53778    1.12149   1.00
H2       0.60245    0.61700    0.91739   1.00
H2       0.75482    0.54320    1.07502   1.00
C4       0.74866    0.98025    0.75460   1.00
C4       0.74721    1.02191    0.75514   1.00
C3       0.78219    0.95897    0.76692   1.00
C3       0.77748    1.04504    0.77180   1.00
C3       0.71560    0.95854    0.74127   1.00
C3       0.71442    1.04170    0.73856   1.00
C2       0.75095    0.89595    0.75534   1.00
C2       0.74521    1.10622    0.75453   1.00
C3       0.78331    0.91811    0.76749   1.00
C3       0.77667    1.08591    0.77137   1.00
C3       0.71784    0.91696    0.74252   1.00
C3       0.71482    1.08336    0.73851   1.00
H1       0.80721    0.97237    0.77558   1.00
H1       0.80107    1.03306    0.78522   1.00
C5       0.68162    0.97835    0.72698   1.00
C5       0.68230    1.01998    0.72282   1.00
H1       0.80831    0.90451    0.77685   1.00
H1       0.79948    1.10091    0.78373   1.00
H1       0.69483    0.90052    0.73353   1.00
H1       0.69216    1.09848    0.72675   1.00
C6       0.64539    0.95515    0.71690   1.00
C6       0.64980    1.04119    0.70168   1.00
H2       0.64031    0.93345    0.73959   1.00
H2       0.66250    1.06310    0.68246   1.00
H2       0.61916    0.97286    0.71900   1.00
H2       0.63501    1.02228    0.68095   1.00
C6       0.64717    0.93606    0.67537   1.00
C6       0.61880    1.05942    0.72994   1.00
H2       0.67589    0.92292    0.67088   1.00
H2       0.63365    1.07383    0.75422   1.00
C6       0.61565    0.90459    0.66522   1.00
C6       0.58894    1.08911    0.71221   1.00
H2       0.64520    0.95949    0.65383   1.00
H2       0.60243    1.03546    0.74315   1.00
C6       0.62044    0.86735    0.69052   1.00
C6       0.60934    1.12708    0.69836   1.00
C6       0.57373    0.92074    0.67025   1.00
C6       0.56598    1.07107    0.67770   1.00
C6       0.62084    0.89245    0.62187   1.00
C6       0.55914    1.10054    0.74438   1.00
H2       0.64996    0.85558    0.68810   1.00
H2       0.62634    1.14020    0.72190   1.00
H2       0.61478    0.87330    0.72121   1.00
H2       0.62900    1.12154    0.67402   1.00
H2       0.60012    0.84459    0.68140   1.00
H2       0.58803    1.14863    0.68857   1.00
H2       0.55206    0.89955    0.66046   1.00
H2       0.54335    1.09098    0.66738   1.00
H2       0.56761    0.92725    0.70078   1.00
H2       0.58525    1.06494    0.65315   1.00
H2       0.56983    0.94745    0.65337   1.00
H2       0.55200    1.04385    0.68646   1.00
H2       0.64991    0.88042    0.61681   1.00
H2       0.57385    1.11383    0.76933   1.00
H2       0.59959    0.87025    0.61345   1.00
H2       0.53778    1.12149    0.73345   1.00
H2       0.61700    0.91739    0.60245   1.00
H2       0.54320    1.07502    0.75482   1.00
C4       0.51975    0.75460    0.75134   1.00
C4       0.47809    0.75514    0.75279   1.00
C3       0.54103    0.76692    0.71781   1.00
C3       0.45496    0.77180    0.72252   1.00
C3       0.54146    0.74127    0.78440   1.00
C3       0.45830    0.73856    0.78558   1.00
C2       0.60405    0.75534    0.74905   1.00
C2       0.39378    0.75453    0.75479   1.00
C3       0.58189    0.76749    0.71669   1.00
C3       0.41409    0.77137    0.72333   1.00
C3       0.58304    0.74252    0.78216   1.00
C3       0.41664    0.73851    0.78518   1.00
H1       0.52763    0.77558    0.69279   1.00
H1       0.46694    0.78522    0.69893   1.00
C5       0.52165    0.72698    0.81838   1.00
C5       0.48002    0.72282    0.81770   1.00
H1       0.59549    0.77685    0.69169   1.00
H1       0.39909    0.78373    0.70052   1.00
H1       0.59948    0.73353    0.80517   1.00
H1       0.40152    0.72675    0.80784   1.00
C6       0.54485    0.71690    0.85461   1.00
C6       0.45881    0.70168    0.85020   1.00
H2       0.56655    0.73959    0.85969   1.00
H2       0.43690    0.68246    0.83750   1.00
H2       0.52714    0.71900    0.88084   1.00
H2       0.47772    0.68095    0.86499   1.00
C6       0.56394    0.67537    0.85283   1.00
C6       0.44058    0.72994    0.88120   1.00
H2       0.57708    0.67088    0.82411   1.00
H2       0.42617    0.75422    0.86635   1.00
C6       0.59541    0.66522    0.88435   1.00
C6       0.41089    0.71221    0.91106   1.00
H2       0.54051    0.65383    0.85480   1.00
H2       0.46454    0.74315    0.89757   1.00
C6       0.63265    0.69052    0.87956   1.00
C6       0.37292    0.69836    0.89066   1.00
C6       0.57926    0.67025    0.92627   1.00
C6       0.42893    0.67770    0.93402   1.00
C6       0.60755    0.62187    0.87916   1.00
C6       0.39946    0.74438    0.94086   1.00
H2       0.64442    0.68810    0.85004   1.00
H2       0.35980    0.72190    0.87366   1.00
H2       0.62670    0.72121    0.88522   1.00
H2       0.37846    0.67402    0.87100   1.00
H2       0.65541    0.68140    0.89988   1.00
H2       0.35137    0.68857    0.91197   1.00
H2       0.60045    0.66046    0.94794   1.00
H2       0.40902    0.66738    0.95665   1.00
H2       0.57275    0.70078    0.93239   1.00
H2       0.43506    0.65315    0.91475   1.00
H2       0.55255    0.65337    0.93017   1.00
H2       0.45615    0.68646    0.94800   1.00
H2       0.61958    0.61681    0.85009   1.00
H2       0.38617    0.76933    0.92615   1.00
H2       0.62975    0.61345    0.90041   1.00
H2       0.37851    0.73345    0.96222   1.00
H2       0.58261    0.60245    0.88300   1.00
H2       0.42498    0.75482    0.95680   1.00
C4       0.98025    0.75460    0.74866   1.00
C4       1.02191    0.75514    0.74721   1.00
C3       0.95897    0.76692    0.78219   1.00
C3       1.04504    0.77180    0.77748   1.00
C3       0.95854    0.74127    0.71560   1.00
C3       1.04170    0.73856    0.71442   1.00
C2       0.89595    0.75534    0.75095   1.00
C2       1.10622    0.75453    0.74521   1.00
C3       0.91811    0.76749    0.78331   1.00
C3       1.08591    0.77137    0.77667   1.00
C3       0.91696    0.74252    0.71784   1.00
C3       1.08336    0.73851    0.71482   1.00
H1       0.97237    0.77558    0.80721   1.00
H1       1.03306    0.78522    0.80107   1.00
C5       0.97835    0.72698    0.68162   1.00
C5       1.01998    0.72282    0.68230   1.00
H1       0.90451    0.77685    0.80831   1.00
H1       1.10091    0.78373    0.79948   1.00
H1       0.90052    0.73353    0.69483   1.00
H1       1.09848    0.72675    0.69216   1.00
C6       0.95515    0.71690    0.64539   1.00
C6       1.04119    0.70168    0.64980   1.00
H2       0.93345    0.73959    0.64031   1.00
H2       1.06310    0.68246    0.66250   1.00
H2       0.97286    0.71900    0.61916   1.00
H2       1.02228    0.68095    0.63501   1.00
C6       0.93606    0.67537    0.64717   1.00
C6       1.05942    0.72994    0.61880   1.00
H2       0.92292    0.67088    0.67589   1.00
H2       1.07383    0.75422    0.63365   1.00
C6       0.90459    0.66522    0.61565   1.00
C6       1.08911    0.71221    0.58894   1.00
H2       0.95949    0.65383    0.64520   1.00
H2       1.03546    0.74315    0.60243   1.00
C6       0.86735    0.69052    0.62044   1.00
C6       1.12708    0.69836    0.60934   1.00
C6       0.92074    0.67025    0.57373   1.00
C6       1.07107    0.67770    0.56598   1.00
C6       0.89245    0.62187    0.62084   1.00
C6       1.10054    0.74438    0.55914   1.00
H2       0.85558    0.68810    0.64996   1.00
H2       1.14020    0.72190    0.62634   1.00
H2       0.87330    0.72121    0.61478   1.00
H2       1.12154    0.67402    0.62900   1.00
H2       0.84459    0.68140    0.60012   1.00
H2       1.14863    0.68857    0.58803   1.00
H2       0.89955    0.66046    0.55206   1.00
H2       1.09098    0.66738    0.54335   1.00
H2       0.92725    0.70078    0.56761   1.00
H2       1.06494    0.65315    0.58525   1.00
H2       0.94745    0.65337    0.56983   1.00
H2       1.04385    0.68646    0.55200   1.00
H2       0.88042    0.61681    0.64991   1.00
H2       1.11383    0.76933    0.57385   1.00
H2       0.87025    0.61345    0.59959   1.00
H2       1.12149    0.73345    0.53778   1.00
H2       0.91739    0.60245    0.61700   1.00
H2       1.07502    0.75482    0.54320   1.00
C4       0.75134    0.51975    0.75460   1.00
C4       0.75279    0.47809    0.75514   1.00
C3       0.71781    0.54103    0.76692   1.00
C3       0.72252    0.45496    0.77180   1.00
C3       0.78440    0.54146    0.74127   1.00
C3       0.78558    0.45830    0.73856   1.00
C2       0.74905    0.60405    0.75534   1.00
C2       0.75479    0.39378    0.75453   1.00
C3       0.71669    0.58189    0.76749   1.00
C3       0.72333    0.41409    0.77137   1.00
C3       0.78216    0.58304    0.74252   1.00
C3       0.78518    0.41664    0.73851   1.00
H1       0.69279    0.52763    0.77558   1.00
H1       0.69893    0.46694    0.78522   1.00
C5       0.81838    0.52165    0.72698   1.00
C5       0.81770    0.48002    0.72282   1.00
H1       0.69169    0.59549    0.77685   1.00
H1       0.70052    0.39909    0.78373   1.00
H1       0.80517    0.59948    0.73353   1.00
H1       0.80784    0.40152    0.72675   1.00
C6       0.85461    0.54485    0.71690   1.00
C6       0.85020    0.45881    0.70168   1.00
H2       0.85969    0.56655    0.73959   1.00
H2       0.83750    0.43690    0.68246   1.00
H2       0.88084    0.52714    0.71900   1.00
H2       0.86499    0.47772    0.68095   1.00
C6       0.85283    0.56394    0.67537   1.00
C6       0.88120    0.44058    0.72994   1.00
H2       0.82411    0.57708    0.67088   1.00
H2       0.86635    0.42617    0.75422   1.00
C6       0.88435    0.59541    0.66522   1.00
C6       0.91106    0.41089    0.71221   1.00
H2       0.85480    0.54051    0.65383   1.00
H2       0.89757    0.46454    0.74315   1.00
C6       0.87956    0.63265    0.69052   1.00
C6       0.89066    0.37292    0.69836   1.00
C6       0.92627    0.57926    0.67025   1.00
C6       0.93402    0.42893    0.67770   1.00
C6       0.87916    0.60755    0.62187   1.00
C6       0.94086    0.39946    0.74438   1.00
H2       0.85004    0.64442    0.68810   1.00
H2       0.87366    0.35980    0.72190   1.00
H2       0.88522    0.62670    0.72121   1.00
H2       0.87100    0.37846    0.67402   1.00
H2       0.89988    0.65541    0.68140   1.00
H2       0.91197    0.35137    0.68857   1.00
H2       0.94794    0.60045    0.66046   1.00
H2       0.95665    0.40902    0.66738   1.00
H2       0.93239    0.57275    0.70078   1.00
H2       0.91475    0.43506    0.65315   1.00
H2       0.93017    0.55255    0.65337   1.00
H2       0.94800    0.45615    0.68646   1.00
H2       0.85009    0.61958    0.61681   1.00
H2       0.92615    0.38617    0.76933   1.00
H2       0.90041    0.62975    0.61345   1.00
H2       0.96222    0.37851    0.73345   1.00
H2       0.88300    0.58261    0.60245   1.00
H2       0.95680    0.42498    0.75482   1.00
C4       0.75460    0.75134    0.51975   1.00
C4       0.75514    0.75279    0.47809   1.00
C3       0.76692    0.71781    0.54103   1.00
C3       0.77180    0.72252    0.45496   1.00
C3       0.74127    0.78440    0.54146   1.00
C3       0.73856    0.78558    0.45830   1.00
C2       0.75534    0.74905    0.60405   1.00
C2       0.75453    0.75479    0.39378   1.00
C3       0.76749    0.71669    0.58189   1.00
C3       0.77137    0.72333    0.41409   1.00
C3       0.74252    0.78216    0.58304   1.00
C3       0.73851    0.78518    0.41664   1.00
H1       0.77558    0.69279    0.52763   1.00
H1       0.78522    0.69893    0.46694   1.00
C5       0.72698    0.81838    0.52165   1.00
C5       0.72282    0.81770    0.48002   1.00
H1       0.77685    0.69169    0.59549   1.00
H1       0.78373    0.70052    0.39909   1.00
H1       0.73353    0.80517    0.59948   1.00
H1       0.72675    0.80784    0.40152   1.00
C6       0.71690    0.85461    0.54485   1.00
C6       0.70168    0.85020    0.45881   1.00
H2       0.73959    0.85969    0.56655   1.00
H2       0.68246    0.83750    0.43690   1.00
H2       0.71900    0.88084    0.52714   1.00
H2       0.68095    0.86499    0.47772   1.00
C6       0.67537    0.85283    0.56394   1.00
C6       0.72994    0.88120    0.44058   1.00
H2       0.67088    0.82411    0.57708   1.00
H2       0.75422    0.86635    0.42617   1.00
C6       0.66522    0.88435    0.59541   1.00
C6       0.71221    0.91106    0.41089   1.00
H2       0.65383    0.85480    0.54051   1.00
H2       0.74315    0.89757    0.46454   1.00
C6       0.69052    0.87956    0.63265   1.00
C6       0.69836    0.89066    0.37292   1.00
C6       0.67025    0.92627    0.57926   1.00
C6       0.67770    0.93402    0.42893   1.00
C6       0.62187    0.87916    0.60755   1.00
C6       0.74438    0.94086    0.39946   1.00
H2       0.68810    0.85004    0.64442   1.00
H2       0.72190    0.87366    0.35980   1.00
H2       0.72121    0.88522    0.62670   1.00
H2       0.67402    0.87100    0.37846   1.00
H2       0.68140    0.89988    0.65541   1.00
H2       0.68857    0.91197    0.35137   1.00
H2       0.66046    0.94794    0.60045   1.00
H2       0.66738    0.95665    0.40902   1.00
H2       0.70078    0.93239    0.57275   1.00
H2       0.65315    0.91475    0.43506   1.00
H2       0.65337    0.93017    0.55255   1.00
H2       0.68646    0.94800    0.45615   1.00
H2       0.61681    0.85009    0.61958   1.00
H2       0.76933    0.92615    0.38617   1.00
H2       0.61345    0.90041    0.62975   1.00
H2       0.73345    0.96222    0.37851   1.00
H2       0.60245    0.88300    0.58261   1.00
H2       0.75482    0.95680    0.42498   1.00
C4       0.25460    0.24866    0.98025   1.00
C4       0.25514    0.24721    1.02191   1.00
C3       0.26692    0.28219    0.95897   1.00
C3       0.27180    0.27748    1.04504   1.00
C3       0.24127    0.21560    0.95854   1.00
C3       0.23856    0.21442    1.04170   1.00
C2       0.25534    0.25095    0.89595   1.00
C2       0.25453    0.24521    1.10622   1.00
C3       0.26749    0.28331    0.91811   1.00
C3       0.27137    0.27667    1.08591   1.00
C3       0.24252    0.21784    0.91696   1.00
C3       0.23851    0.21482    1.08336   1.00
H1       0.27558    0.30721    0.97237   1.00
H1       0.28522    0.30107    1.03306   1.00
C5       0.22698    0.18162    0.97835   1.00
C5       0.22282    0.18230    1.01998   1.00
H1       0.27685    0.30831    0.90451   1.00
H1       0.28373    0.29948    1.10091   1.00
H1       0.23353    0.19483    0.90052   1.00
H1       0.22675    0.19216    1.09848   1.00
C6       0.21690    0.14539    0.95515   1.00
C6       0.20168    0.14980    1.04119   1.00
H2       0.23959    0.14031    0.93345   1.00
H2       0.18246    0.16250    1.06310   1.00
H2       0.21900    0.11916    0.97286   1.00
H2       0.18095    0.13501    1.02228   1.00
C6       0.17537    0.14717    0.93606   1.00
C6       0.22994    0.11880    1.05942   1.00
H2       0.17088    0.17589    0.92292   1.00
H2       0.25422    0.13365    1.07383   1.00
C6       0.16522    0.11565    0.90459   1.00
C6       0.21221    0.08894    1.08911   1.00
H2       0.15383    0.14520    0.95949   1.00
H2       0.24315    0.10243    1.03546   1.00
C6       0.19052    0.12044    0.86735   1.00
C6       0.19836    0.10934    1.12708   1.00
C6       0.17025    0.07373    0.92074   1.00
C6       0.17770    0.06598    1.07107   1.00
C6       0.12187    0.12084    0.89245   1.00
C6       0.24438    0.05914    1.10054   1.00
H2       0.18810    0.14996    0.85558   1.00
H2       0.22190    0.12634    1.14020   1.00
H2       0.22121    0.11478    0.87330   1.00
H2       0.17402    0.12900    1.12154   1.00
H2       0.18140    0.10012    0.84459   1.00
H2       0.18857    0.08803    1.14863   1.00
H2       0.16046    0.05206    0.89955   1.00
H2       0.16738    0.04335    1.09098   1.00
H2       0.20078    0.06761    0.92725   1.00
H2       0.15315    0.08525    1.06494   1.00
H2       0.15337    0.06983    0.94745   1.00
H2       0.18646    0.05200    1.04385   1.00
H2       0.11681    0.14991    0.88042   1.00
H2       0.26933    0.07385    1.11383   1.00
H2       0.11345    0.09959    0.87025   1.00
H2       0.23345    0.03778    1.12149   1.00
H2       0.10245    0.11700    0.91739   1.00
H2       0.25482    0.04320    1.07502   1.00
C4       0.24866    0.48025    0.75460   1.00
C4       0.24721    0.52191    0.75514   1.00
C3       0.28219    0.45897    0.76692   1.00
C3       0.27748    0.54504    0.77180   1.00
C3       0.21560    0.45854    0.74127   1.00
C3       0.21442    0.54170    0.73856   1.00
C2       0.25095    0.39595    0.75534   1.00
C2       0.24521    0.60622    0.75453   1.00
C3       0.28331    0.41811    0.76749   1.00
C3       0.27667    0.58591    0.77137   1.00
C3       0.21784    0.41696    0.74252   1.00
C3       0.21482    0.58336    0.73851   1.00
H1       0.30721    0.47237    0.77558   1.00
H1       0.30107    0.53306    0.78522   1.00
C5       0.18162    0.47835    0.72698   1.00
C5       0.18230    0.51998    0.72282   1.00
H1       0.30831    0.40451    0.77685   1.00
H1       0.29948    0.60091    0.78373   1.00
H1       0.19483    0.40052    0.73353   1.00
H1       0.19216    0.59848    0.72675   1.00
C6       0.14539    0.45515    0.71690   1.00
C6       0.14980    0.54119    0.70168   1.00
H2       0.14031    0.43345    0.73959   1.00
H2       0.16250    0.56310    0.68246   1.00
H2       0.11916    0.47286    0.71900   1.00
H2       0.13501    0.52228    0.68095   1.00
C6       0.14717    0.43606    0.67537   1.00
C6       0.11880    0.55942    0.72994   1.00
H2       0.17589    0.42292    0.67088   1.00
H2       0.13365    0.57383    0.75422   1.00
C6       0.11565    0.40459    0.66522   1.00
C6       0.08894    0.58911    0.71221   1.00
H2       0.14520    0.45949    0.65383   1.00
H2       0.10243    0.53546    0.74315   1.00
C6       0.12044    0.36735    0.69052   1.00
C6       0.10934    0.62708    0.69836   1.00
C6       0.07373    0.42074    0.67025   1.00
C6       0.06598    0.57107    0.67770   1.00
C6       0.12084    0.39245    0.62187   1.00
C6       0.05914    0.60054    0.74438   1.00
H2       0.14996    0.35558    0.68810   1.00
H2       0.12634    0.64020    0.72190   1.00
H2       0.11478    0.37330    0.72121   1.00
H2       0.12900    0.62154    0.67402   1.00
H2       0.10012    0.34459    0.68140   1.00
H2       0.08803    0.64863    0.68857   1.00
H2       0.05206    0.39955    0.66046   1.00
H2       0.04335    0.59098    0.66738   1.00
H2       0.06761    0.42725    0.70078   1.00
H2       0.08525    0.56494    0.65315   1.00
H2       0.06983    0.44745    0.65337   1.00
H2       0.05200    0.54385    0.68646   1.00
H2       0.14991    0.38042    0.61681   1.00
H2       0.07385    0.61383    0.76933   1.00
H2       0.09959    0.37025    0.61345   1.00
H2       0.03778    0.62149    0.73345   1.00
H2       0.11700    0.41739    0.60245   1.00
H2       0.04320    0.57502    0.75482   1.00
C4       0.01975    0.25460    0.75134   1.00
C4       -0.02191   0.25514    0.75279   1.00
C3       0.04103    0.26692    0.71781   1.00
C3       -0.04504   0.27180    0.72252   1.00
C3       0.04146    0.24127    0.78440   1.00
C3       -0.04170   0.23856    0.78558   1.00
C2       0.10405    0.25534    0.74905   1.00
C2       -0.10622   0.25453    0.75479   1.00
C3       0.08189    0.26749    0.71669   1.00
C3       -0.08591   0.27137    0.72333   1.00
C3       0.08304    0.24252    0.78216   1.00
C3       -0.08336   0.23851    0.78518   1.00
H1       0.02763    0.27558    0.69279   1.00
H1       -0.03306   0.28522    0.69893   1.00
C5       0.02165    0.22698    0.81838   1.00
C5       -0.01998   0.22282    0.81770   1.00
H1       0.09549    0.27685    0.69169   1.00
H1       -0.10091   0.28373    0.70052   1.00
H1       0.09948    0.23353    0.80517   1.00
H1       -0.09848   0.22675    0.80784   1.00
C6       0.04485    0.21690    0.85461   1.00
C6       -0.04119   0.20168    0.85020   1.00
H2       0.06655    0.23959    0.85969   1.00
H2       -0.06310   0.18246    0.83750   1.00
H2       0.02714    0.21900    0.88084   1.00
H2       -0.02228   0.18095    0.86499   1.00
C6       0.06394    0.17537    0.85283   1.00
C6       -0.05942   0.22994    0.88120   1.00
H2       0.07708    0.17088    0.82411   1.00
H2       -0.07383   0.25422    0.86635   1.00
C6       0.09541    0.16522    0.88435   1.00
C6       -0.08911   0.21221    0.91106   1.00
H2       0.04051    0.15383    0.85480   1.00
H2       -0.03546   0.24315    0.89757   1.00
C6       0.13265    0.19052    0.87956   1.00
C6       -0.12708   0.19836    0.89066   1.00
C6       0.07926    0.17025    0.92627   1.00
C6       -0.07107   0.17770    0.93402   1.00
C6       0.10755    0.12187    0.87916   1.00
C6       -0.10054   0.24438    0.94086   1.00
H2       0.14442    0.18810    0.85004   1.00
H2       -0.14020   0.22190    0.87366   1.00
H2       0.12670    0.22121    0.88522   1.00
H2       -0.12154   0.17402    0.87100   1.00
H2       0.15541    0.18140    0.89988   1.00
H2       -0.14863   0.18857    0.91197   1.00
H2       0.10045    0.16046    0.94794   1.00
H2       -0.09098   0.16738    0.95665   1.00
H2       0.07275    0.20078    0.93239   1.00
H2       -0.06494   0.15315    0.91475   1.00
H2       0.05255    0.15337    0.93017   1.00
H2       -0.04385   0.18646    0.94800   1.00
H2       0.11958    0.11681    0.85009   1.00
H2       -0.11383   0.26933    0.92615   1.00
H2       0.12975    0.11345    0.90041   1.00
H2       -0.12149   0.23345    0.96222   1.00
H2       0.08261    0.10245    0.88300   1.00
H2       -0.07502   0.25482    0.95680   1.00
C4       0.48025    0.25460    0.74866   1.00
C4       0.52191    0.25514    0.74721   1.00
C3       0.45897    0.26692    0.78219   1.00
C3       0.54504    0.27180    0.77748   1.00
C3       0.45854    0.24127    0.71560   1.00
C3       0.54170    0.23856    0.71442   1.00
C2       0.39595    0.25534    0.75095   1.00
C2       0.60622    0.25453    0.74521   1.00
C3       0.41811    0.26749    0.78331   1.00
C3       0.58591    0.27137    0.77667   1.00
C3       0.41696    0.24252    0.71784   1.00
C3       0.58336    0.23851    0.71482   1.00
H1       0.47237    0.27558    0.80721   1.00
H1       0.53306    0.28522    0.80107   1.00
C5       0.47835    0.22698    0.68162   1.00
C5       0.51998    0.22282    0.68230   1.00
H1       0.40451    0.27685    0.80831   1.00
H1       0.60091    0.28373    0.79948   1.00
H1       0.40052    0.23353    0.69483   1.00
H1       0.59848    0.22675    0.69216   1.00
C6       0.45515    0.21690    0.64539   1.00
C6       0.54119    0.20168    0.64980   1.00
H2       0.43345    0.23959    0.64031   1.00
H2       0.56310    0.18246    0.66250   1.00
H2       0.47286    0.21900    0.61916   1.00
H2       0.52228    0.18095    0.63501   1.00
C6       0.43606    0.17537    0.64717   1.00
C6       0.55942    0.22994    0.61880   1.00
H2       0.42292    0.17088    0.67589   1.00
H2       0.57383    0.25422    0.63365   1.00
C6       0.40459    0.16522    0.61565   1.00
C6       0.58911    0.21221    0.58894   1.00
H2       0.45949    0.15383    0.64520   1.00
H2       0.53546    0.24315    0.60243   1.00
C6       0.36735    0.19052    0.62044   1.00
C6       0.62708    0.19836    0.60934   1.00
C6       0.42074    0.17025    0.57373   1.00
C6       0.57107    0.17770    0.56598   1.00
C6       0.39245    0.12187    0.62084   1.00
C6       0.60054    0.24438    0.55914   1.00
H2       0.35558    0.18810    0.64996   1.00
H2       0.64020    0.22190    0.62634   1.00
H2       0.37330    0.22121    0.61478   1.00
H2       0.62154    0.17402    0.62900   1.00
H2       0.34459    0.18140    0.60012   1.00
H2       0.64863    0.18857    0.58803   1.00
H2       0.39955    0.16046    0.55206   1.00
H2       0.59098    0.16738    0.54335   1.00
H2       0.42725    0.20078    0.56761   1.00
H2       0.56494    0.15315    0.58525   1.00
H2       0.44745    0.15337    0.56983   1.00
H2       0.54385    0.18646    0.55200   1.00
H2       0.38042    0.11681    0.64991   1.00
H2       0.61383    0.26933    0.57385   1.00
H2       0.37025    0.11345    0.59959   1.00
H2       0.62149    0.23345    0.53778   1.00
H2       0.41739    0.10245    0.61700   1.00
H2       0.57502    0.25482    0.54320   1.00
C4       0.25134    0.01975    0.75460   1.00
C4       0.25279    -0.02191   0.75514   1.00
C3       0.21781    0.04103    0.76692   1.00
C3       0.22252    -0.04504   0.77180   1.00
C3       0.28440    0.04146    0.74127   1.00
C3       0.28558    -0.04170   0.73856   1.00
C2       0.24905    0.10405    0.75534   1.00
C2       0.25479    -0.10622   0.75453   1.00
C3       0.21669    0.08189    0.76749   1.00
C3       0.22333    -0.08591   0.77137   1.00
C3       0.28216    0.08304    0.74252   1.00
C3       0.28518    -0.08336   0.73851   1.00
H1       0.19279    0.02763    0.77558   1.00
H1       0.19893    -0.03306   0.78522   1.00
C5       0.31838    0.02165    0.72698   1.00
C5       0.31770    -0.01998   0.72282   1.00
H1       0.19169    0.09549    0.77685   1.00
H1       0.20052    -0.10091   0.78373   1.00
H1       0.30517    0.09948    0.73353   1.00
H1       0.30784    -0.09848   0.72675   1.00
C6       0.35461    0.04485    0.71690   1.00
C6       0.35020    -0.04119   0.70168   1.00
H2       0.35969    0.06655    0.73959   1.00
H2       0.33750    -0.06310   0.68246   1.00
H2       0.38084    0.02714    0.71900   1.00
H2       0.36499    -0.02228   0.68095   1.00
C6       0.35283    0.06394    0.67537   1.00
C6       0.38120    -0.05942   0.72994   1.00
H2       0.32411    0.07708    0.67088   1.00
H2       0.36635    -0.07383   0.75422   1.00
C6       0.38435    0.09541    0.66522   1.00
C6       0.41106    -0.08911   0.71221   1.00
H2       0.35480    0.04051    0.65383   1.00
H2       0.39757    -0.03546   0.74315   1.00
C6       0.37956    0.13265    0.69052   1.00
C6       0.39066    -0.12708   0.69836   1.00
C6       0.42627    0.07926    0.67025   1.00
C6       0.43402    -0.07107   0.67770   1.00
C6       0.37916    0.10755    0.62187   1.00
C6       0.44086    -0.10054   0.74438   1.00
H2       0.35004    0.14442    0.68810   1.00
H2       0.37366    -0.14020   0.72190   1.00
H2       0.38522    0.12670    0.72121   1.00
H2       0.37100    -0.12154   0.67402   1.00
H2       0.39988    0.15541    0.68140   1.00
H2       0.41197    -0.14863   0.68857   1.00
H2       0.44794    0.10045    0.66046   1.00
H2       0.45665    -0.09098   0.66738   1.00
H2       0.43239    0.07275    0.70078   1.00
H2       0.41475    -0.06494   0.65315   1.00
H2       0.43017    0.05255    0.65337   1.00
H2       0.44800    -0.04385   0.68646   1.00
H2       0.35009    0.11958    0.61681   1.00
H2       0.42615    -0.11383   0.76933   1.00
H2       0.40041    0.12975    0.61345   1.00
H2       0.46222    -0.12149   0.73345   1.00
H2       0.38300    0.08261    0.60245   1.00
H2       0.45680    -0.07502   0.75482   1.00
C4       0.25460    0.25134    0.51975   1.00
C4       0.25514    0.25279    0.47809   1.00
C3       0.26692    0.21781    0.54103   1.00
C3       0.27180    0.22252    0.45496   1.00
C3       0.24127    0.28440    0.54146   1.00
C3       0.23856    0.28558    0.45830   1.00
C2       0.25534    0.24905    0.60405   1.00
C2       0.25453    0.25479    0.39378   1.00
C3       0.26749    0.21669    0.58189   1.00
C3       0.27137    0.22333    0.41409   1.00
C3       0.24252    0.28216    0.58304   1.00
C3       0.23851    0.28518    0.41664   1.00
H1       0.27558    0.19279    0.52763   1.00
H1       0.28522    0.19893    0.46694   1.00
C5       0.22698    0.31838    0.52165   1.00
C5       0.22282    0.31770    0.48002   1.00
H1       0.27685    0.19169    0.59549   1.00
H1       0.28373    0.20052    0.39909   1.00
H1       0.23353    0.30517    0.59948   1.00
H1       0.22675    0.30784    0.40152   1.00
C6       0.21690    0.35461    0.54485   1.00
C6       0.20168    0.35020    0.45881   1.00
H2       0.23959    0.35969    0.56655   1.00
H2       0.18246    0.33750    0.43690   1.00
H2       0.21900    0.38084    0.52714   1.00
H2       0.18095    0.36499    0.47772   1.00
C6       0.17537    0.35283    0.56394   1.00
C6       0.22994    0.38120    0.44058   1.00
H2       0.17088    0.32411    0.57708   1.00
H2       0.25422    0.36635    0.42617   1.00
C6       0.16522    0.38435    0.59541   1.00
C6       0.21221    0.41106    0.41089   1.00
H2       0.15383    0.35480    0.54051   1.00
H2       0.24315    0.39757    0.46454   1.00
C6       0.19052    0.37956    0.63265   1.00
C6       0.19836    0.39066    0.37292   1.00
C6       0.17025    0.42627    0.57926   1.00
C6       0.17770    0.43402    0.42893   1.00
C6       0.12187    0.37916    0.60755   1.00
C6       0.24438    0.44086    0.39946   1.00
H2       0.18810    0.35004    0.64442   1.00
H2       0.22190    0.37366    0.35980   1.00
H2       0.22121    0.38522    0.62670   1.00
H2       0.17402    0.37100    0.37846   1.00
H2       0.18140    0.39988    0.65541   1.00
H2       0.18857    0.41197    0.35137   1.00
H2       0.16046    0.44794    0.60045   1.00
H2       0.16738    0.45665    0.40902   1.00
H2       0.20078    0.43239    0.57275   1.00
H2       0.15315    0.41475    0.43506   1.00
H2       0.15337    0.43017    0.55255   1.00
H2       0.18646    0.44800    0.45615   1.00
H2       0.11681    0.35009    0.61958   1.00
H2       0.26933    0.42615    0.38617   1.00
H2       0.11345    0.40041    0.62975   1.00
H2       0.23345    0.46222    0.37851   1.00
H2       0.10245    0.38300    0.58261   1.00
H2       0.25482    0.45680    0.42498   1.00
C4       0.25460    0.74866    0.48025   1.00
C4       0.25514    0.74721    0.52191   1.00
C3       0.26692    0.78219    0.45897   1.00
C3       0.27180    0.77748    0.54504   1.00
C3       0.24127    0.71560    0.45854   1.00
C3       0.23856    0.71442    0.54170   1.00
C2       0.25534    0.75095    0.39595   1.00
C2       0.25453    0.74521    0.60622   1.00
C3       0.26749    0.78331    0.41811   1.00
C3       0.27137    0.77667    0.58591   1.00
C3       0.24252    0.71784    0.41696   1.00
C3       0.23851    0.71482    0.58336   1.00
H1       0.27558    0.80721    0.47237   1.00
H1       0.28522    0.80107    0.53306   1.00
C5       0.22698    0.68162    0.47835   1.00
C5       0.22282    0.68230    0.51998   1.00
H1       0.27685    0.80831    0.40451   1.00
H1       0.28373    0.79948    0.60091   1.00
H1       0.23353    0.69483    0.40052   1.00
H1       0.22675    0.69216    0.59848   1.00
C6       0.21690    0.64539    0.45515   1.00
C6       0.20168    0.64980    0.54119   1.00
H2       0.23959    0.64031    0.43345   1.00
H2       0.18246    0.66250    0.56310   1.00
H2       0.21900    0.61916    0.47286   1.00
H2       0.18095    0.63501    0.52228   1.00
C6       0.17537    0.64717    0.43606   1.00
C6       0.22994    0.61880    0.55942   1.00
H2       0.17088    0.67589    0.42292   1.00
H2       0.25422    0.63365    0.57383   1.00
C6       0.16522    0.61565    0.40459   1.00
C6       0.21221    0.58894    0.58911   1.00
H2       0.15383    0.64520    0.45949   1.00
H2       0.24315    0.60243    0.53546   1.00
C6       0.19052    0.62044    0.36735   1.00
C6       0.19836    0.60934    0.62708   1.00
C6       0.17025    0.57373    0.42074   1.00
C6       0.17770    0.56598    0.57107   1.00
C6       0.12187    0.62084    0.39245   1.00
C6       0.24438    0.55914    0.60054   1.00
H2       0.18810    0.64996    0.35558   1.00
H2       0.22190    0.62634    0.64020   1.00
H2       0.22121    0.61478    0.37330   1.00
H2       0.17402    0.62900    0.62154   1.00
H2       0.18140    0.60012    0.34459   1.00
H2       0.18857    0.58803    0.64863   1.00
H2       0.16046    0.55206    0.39955   1.00
H2       0.16738    0.54335    0.59098   1.00
H2       0.20078    0.56761    0.42725   1.00
H2       0.15315    0.58525    0.56494   1.00
H2       0.15337    0.56983    0.44745   1.00
H2       0.18646    0.55200    0.54385   1.00
H2       0.11681    0.64991    0.38042   1.00
H2       0.26933    0.57385    0.61383   1.00
H2       0.11345    0.59959    0.37025   1.00
H2       0.23345    0.53778    0.62149   1.00
H2       0.10245    0.61700    0.41739   1.00
H2       0.25482    0.54320    0.57502   1.00
C4       0.24866    0.98025    0.25460   1.00
C4       0.24721    1.02191    0.25514   1.00
C3       0.28219    0.95897    0.26692   1.00
C3       0.27748    1.04504    0.27180   1.00
C3       0.21560    0.95854    0.24127   1.00
C3       0.21442    1.04170    0.23856   1.00
C2       0.25095    0.89595    0.25534   1.00
C2       0.24521    1.10622    0.25453   1.00
C3       0.28331    0.91811    0.26749   1.00
C3       0.27667    1.08591    0.27137   1.00
C3       0.21784    0.91696    0.24252   1.00
C3       0.21482    1.08336    0.23851   1.00
H1       0.30721    0.97237    0.27558   1.00
H1       0.30107    1.03306    0.28522   1.00
C5       0.18162    0.97835    0.22698   1.00
C5       0.18230    1.01998    0.22282   1.00
H1       0.30831    0.90451    0.27685   1.00
H1       0.29948    1.10091    0.28373   1.00
H1       0.19483    0.90052    0.23353   1.00
H1       0.19216    1.09848    0.22675   1.00
C6       0.14539    0.95515    0.21690   1.00
C6       0.14980    1.04119    0.20168   1.00
H2       0.14031    0.93345    0.23959   1.00
H2       0.16250    1.06310    0.18246   1.00
H2       0.11916    0.97286    0.21900   1.00
H2       0.13501    1.02228    0.18095   1.00
C6       0.14717    0.93606    0.17537   1.00
C6       0.11880    1.05942    0.22994   1.00
H2       0.17589    0.92292    0.17088   1.00
H2       0.13365    1.07383    0.25422   1.00
C6       0.11565    0.90459    0.16522   1.00
C6       0.08894    1.08911    0.21221   1.00
H2       0.14520    0.95949    0.15383   1.00
H2       0.10243    1.03546    0.24315   1.00
C6       0.12044    0.86735    0.19052   1.00
C6       0.10934    1.12708    0.19836   1.00
C6       0.07373    0.92074    0.17025   1.00
C6       0.06598    1.07107    0.17770   1.00
C6       0.12084    0.89245    0.12187   1.00
C6       0.05914    1.10054    0.24438   1.00
H2       0.14996    0.85558    0.18810   1.00
H2       0.12634    1.14020    0.22190   1.00
H2       0.11478    0.87330    0.22121   1.00
H2       0.12900    1.12154    0.17402   1.00
H2       0.10012    0.84459    0.18140   1.00
H2       0.08803    1.14863    0.18857   1.00
H2       0.05206    0.89955    0.16046   1.00
H2       0.04335    1.09098    0.16738   1.00
H2       0.06761    0.92725    0.20078   1.00
H2       0.08525    1.06494    0.15315   1.00
H2       0.06983    0.94745    0.15337   1.00
H2       0.05200    1.04385    0.18646   1.00
H2       0.14991    0.88042    0.11681   1.00
H2       0.07385    1.11383    0.26933   1.00
H2       0.09959    0.87025    0.11345   1.00
H2       0.03778    1.12149    0.23345   1.00
H2       0.11700    0.91739    0.10245   1.00
H2       0.04320    1.07502    0.25482   1.00
C4       0.01975    0.75460    0.25134   1.00
C4       -0.02191   0.75514    0.25279   1.00
C3       0.04103    0.76692    0.21781   1.00
C3       -0.04504   0.77180    0.22252   1.00
C3       0.04146    0.74127    0.28440   1.00
C3       -0.04170   0.73856    0.28558   1.00
C2       0.10405    0.75534    0.24905   1.00
C2       -0.10622   0.75453    0.25479   1.00
C3       0.08189    0.76749    0.21669   1.00
C3       -0.08591   0.77137    0.22333   1.00
C3       0.08304    0.74252    0.28216   1.00
C3       -0.08336   0.73851    0.28518   1.00
H1       0.02763    0.77558    0.19279   1.00
H1       -0.03306   0.78522    0.19893   1.00
C5       0.02165    0.72698    0.31838   1.00
C5       -0.01998   0.72282    0.31770   1.00
H1       0.09549    0.77685    0.19169   1.00
H1       -0.10091   0.78373    0.20052   1.00
H1       0.09948    0.73353    0.30517   1.00
H1       -0.09848   0.72675    0.30784   1.00
C6       0.04485    0.71690    0.35461   1.00
C6       -0.04119   0.70168    0.35020   1.00
H2       0.06655    0.73959    0.35969   1.00
H2       -0.06310   0.68246    0.33750   1.00
H2       0.02714    0.71900    0.38084   1.00
H2       -0.02228   0.68095    0.36499   1.00
C6       0.06394    0.67537    0.35283   1.00
C6       -0.05942   0.72994    0.38120   1.00
H2       0.07708    0.67088    0.32411   1.00
H2       -0.07383   0.75422    0.36635   1.00
C6       0.09541    0.66522    0.38435   1.00
C6       -0.08911   0.71221    0.41106   1.00
H2       0.04051    0.65383    0.35480   1.00
H2       -0.03546   0.74315    0.39757   1.00
C6       0.13265    0.69052    0.37956   1.00
C6       -0.12708   0.69836    0.39066   1.00
C6       0.07926    0.67025    0.42627   1.00
C6       -0.07107   0.67770    0.43402   1.00
C6       0.10755    0.62187    0.37916   1.00
C6       -0.10054   0.74438    0.44086   1.00
H2       0.14442    0.68810    0.35004   1.00
H2       -0.14020   0.72190    0.37366   1.00
H2       0.12670    0.72121    0.38522   1.00
H2       -0.12154   0.67402    0.37100   1.00
H2       0.15541    0.68140    0.39988   1.00
H2       -0.14863   0.68857    0.41197   1.00
H2       0.10045    0.66046    0.44794   1.00
H2       -0.09098   0.66738    0.45665   1.00
H2       0.07275    0.70078    0.43239   1.00
H2       -0.06494   0.65315    0.41475   1.00
H2       0.05255    0.65337    0.43017   1.00
H2       -0.04385   0.68646    0.44800   1.00
H2       0.11958    0.61681    0.35009   1.00
H2       -0.11383   0.76933    0.42615   1.00
H2       0.12975    0.61345    0.40041   1.00
H2       -0.12149   0.73345    0.46222   1.00
H2       0.08261    0.60245    0.38300   1.00
H2       -0.07502   0.75482    0.45680   1.00
C4       0.48025    0.75460    0.24866   1.00
C4       0.52191    0.75514    0.24721   1.00
C3       0.45897    0.76692    0.28219   1.00
C3       0.54504    0.77180    0.27748   1.00
C3       0.45854    0.74127    0.21560   1.00
C3       0.54170    0.73856    0.21442   1.00
C2       0.39595    0.75534    0.25095   1.00
C2       0.60622    0.75453    0.24521   1.00
C3       0.41811    0.76749    0.28331   1.00
C3       0.58591    0.77137    0.27667   1.00
C3       0.41696    0.74252    0.21784   1.00
C3       0.58336    0.73851    0.21482   1.00
H1       0.47237    0.77558    0.30721   1.00
H1       0.53306    0.78522    0.30107   1.00
C5       0.47835    0.72698    0.18162   1.00
C5       0.51998    0.72282    0.18230   1.00
H1       0.40451    0.77685    0.30831   1.00
H1       0.60091    0.78373    0.29948   1.00
H1       0.40052    0.73353    0.19483   1.00
H1       0.59848    0.72675    0.19216   1.00
C6       0.45515    0.71690    0.14539   1.00
C6       0.54119    0.70168    0.14980   1.00
H2       0.43345    0.73959    0.14031   1.00
H2       0.56310    0.68246    0.16250   1.00
H2       0.47286    0.71900    0.11916   1.00
H2       0.52228    0.68095    0.13501   1.00
C6       0.43606    0.67537    0.14717   1.00
C6       0.55942    0.72994    0.11880   1.00
H2       0.42292    0.67088    0.17589   1.00
H2       0.57383    0.75422    0.13365   1.00
C6       0.40459    0.66522    0.11565   1.00
C6       0.58911    0.71221    0.08894   1.00
H2       0.45949    0.65383    0.14520   1.00
H2       0.53546    0.74315    0.10243   1.00
C6       0.36735    0.69052    0.12044   1.00
C6       0.62708    0.69836    0.10934   1.00
C6       0.42074    0.67025    0.07373   1.00
C6       0.57107    0.67770    0.06598   1.00
C6       0.39245    0.62187    0.12084   1.00
C6       0.60054    0.74438    0.05914   1.00
H2       0.35558    0.68810    0.14996   1.00
H2       0.64020    0.72190    0.12634   1.00
H2       0.37330    0.72121    0.11478   1.00
H2       0.62154    0.67402    0.12900   1.00
H2       0.34459    0.68140    0.10012   1.00
H2       0.64863    0.68857    0.08803   1.00
H2       0.39955    0.66046    0.05206   1.00
H2       0.59098    0.66738    0.04335   1.00
H2       0.42725    0.70078    0.06761   1.00
H2       0.56494    0.65315    0.08525   1.00
H2       0.44745    0.65337    0.06983   1.00
H2       0.54385    0.68646    0.05200   1.00
H2       0.38042    0.61681    0.14991   1.00
H2       0.61383    0.76933    0.07385   1.00
H2       0.37025    0.61345    0.09959   1.00
H2       0.62149    0.73345    0.03778   1.00
H2       0.41739    0.60245    0.11700   1.00
H2       0.57502    0.75482    0.04320   1.00
C4       0.25134    0.51975    0.25460   1.00
C4       0.25279    0.47809    0.25514   1.00
C3       0.21781    0.54103    0.26692   1.00
C3       0.22252    0.45496    0.27180   1.00
C3       0.28440    0.54146    0.24127   1.00
C3       0.28558    0.45830    0.23856   1.00
C2       0.24905    0.60405    0.25534   1.00
C2       0.25479    0.39378    0.25453   1.00
C3       0.21669    0.58189    0.26749   1.00
C3       0.22333    0.41409    0.27137   1.00
C3       0.28216    0.58304    0.24252   1.00
C3       0.28518    0.41664    0.23851   1.00
H1       0.19279    0.52763    0.27558   1.00
H1       0.19893    0.46694    0.28522   1.00
C5       0.31838    0.52165    0.22698   1.00
C5       0.31770    0.48002    0.22282   1.00
H1       0.19169    0.59549    0.27685   1.00
H1       0.20052    0.39909    0.28373   1.00
H1       0.30517    0.59948    0.23353   1.00
H1       0.30784    0.40152    0.22675   1.00
C6       0.35461    0.54485    0.21690   1.00
C6       0.35020    0.45881    0.20168   1.00
H2       0.35969    0.56655    0.23959   1.00
H2       0.33750    0.43690    0.18246   1.00
H2       0.38084    0.52714    0.21900   1.00
H2       0.36499    0.47772    0.18095   1.00
C6       0.35283    0.56394    0.17537   1.00
C6       0.38120    0.44058    0.22994   1.00
H2       0.32411    0.57708    0.17088   1.00
H2       0.36635    0.42617    0.25422   1.00
C6       0.38435    0.59541    0.16522   1.00
C6       0.41106    0.41089    0.21221   1.00
H2       0.35480    0.54051    0.15383   1.00
H2       0.39757    0.46454    0.24315   1.00
C6       0.37956    0.63265    0.19052   1.00
C6       0.39066    0.37292    0.19836   1.00
C6       0.42627    0.57926    0.17025   1.00
C6       0.43402    0.42893    0.17770   1.00
C6       0.37916    0.60755    0.12187   1.00
C6       0.44086    0.39946    0.24438   1.00
H2       0.35004    0.64442    0.18810   1.00
H2       0.37366    0.35980    0.22190   1.00
H2       0.38522    0.62670    0.22121   1.00
H2       0.37100    0.37846    0.17402   1.00
H2       0.39988    0.65541    0.18140   1.00
H2       0.41197    0.35137    0.18857   1.00
H2       0.44794    0.60045    0.16046   1.00
H2       0.45665    0.40902    0.16738   1.00
H2       0.43239    0.57275    0.20078   1.00
H2       0.41475    0.43506    0.15315   1.00
H2       0.43017    0.55255    0.15337   1.00
H2       0.44800    0.45615    0.18646   1.00
H2       0.35009    0.61958    0.11681   1.00
H2       0.42615    0.38617    0.26933   1.00
H2       0.40041    0.62975    0.11345   1.00
H2       0.46222    0.37851    0.23345   1.00
H2       0.38300    0.58261    0.10245   1.00
H2       0.45680    0.42498    0.25482   1.00
C4       0.25460    0.75134    0.01975   1.00
C4       0.25514    0.75279    -0.02191   1.00
C3       0.26692    0.71781    0.04103   1.00
C3       0.27180    0.72252    -0.04504   1.00
C3       0.24127    0.78440    0.04146   1.00
C3       0.23856    0.78558    -0.04170   1.00
C2       0.25534    0.74905    0.10405   1.00
C2       0.25453    0.75479    -0.10622   1.00
C3       0.26749    0.71669    0.08189   1.00
C3       0.27137    0.72333    -0.08591   1.00
C3       0.24252    0.78216    0.08304   1.00
C3       0.23851    0.78518    -0.08336   1.00
H1       0.27558    0.69279    0.02763   1.00
H1       0.28522    0.69893    -0.03306   1.00
C5       0.22698    0.81838    0.02165   1.00
C5       0.22282    0.81770    -0.01998   1.00
H1       0.27685    0.69169    0.09549   1.00
H1       0.28373    0.70052    -0.10091   1.00
H1       0.23353    0.80517    0.09948   1.00
H1       0.22675    0.80784    -0.09848   1.00
C6       0.21690    0.85461    0.04485   1.00
C6       0.20168    0.85020    -0.04119   1.00
H2       0.23959    0.85969    0.06655   1.00
H2       0.18246    0.83750    -0.06310   1.00
H2       0.21900    0.88084    0.02714   1.00
H2       0.18095    0.86499    -0.02228   1.00
C6       0.17537    0.85283    0.06394   1.00
C6       0.22994    0.88120    -0.05942   1.00
H2       0.17088    0.82411    0.07708   1.00
H2       0.25422    0.86635    -0.07383   1.00
C6       0.16522    0.88435    0.09541   1.00
C6       0.21221    0.91106    -0.08911   1.00
H2       0.15383    0.85480    0.04051   1.00
H2       0.24315    0.89757    -0.03546   1.00
C6       0.19052    0.87956    0.13265   1.00
C6       0.19836    0.89066    -0.12708   1.00
C6       0.17025    0.92627    0.07926   1.00
C6       0.17770    0.93402    -0.07107   1.00
C6       0.12187    0.87916    0.10755   1.00
C6       0.24438    0.94086    -0.10054   1.00
H2       0.18810    0.85004    0.14442   1.00
H2       0.22190    0.87366    -0.14020   1.00
H2       0.22121    0.88522    0.12670   1.00
H2       0.17402    0.87100    -0.12154   1.00
H2       0.18140    0.89988    0.15541   1.00
H2       0.18857    0.91197    -0.14863   1.00
H2       0.16046    0.94794    0.10045   1.00
H2       0.16738    0.95665    -0.09098   1.00
H2       0.20078    0.93239    0.07275   1.00
H2       0.15315    0.91475    -0.06494   1.00
H2       0.15337    0.93017    0.05255   1.00
H2       0.18646    0.94800    -0.04385   1.00
H2       0.11681    0.85009    0.11958   1.00
H2       0.26933    0.92615    -0.11383   1.00
H2       0.11345    0.90041    0.12975   1.00
H2       0.23345    0.96222    -0.12149   1.00
H2       0.10245    0.88300    0.08261   1.00
H2       0.25482    0.95680    -0.07502   1.00
C4       0.75460    0.24866    0.48025   1.00
C4       0.75514    0.24721    0.52191   1.00
C3       0.76692    0.28219    0.45897   1.00
C3       0.77180    0.27748    0.54504   1.00
C3       0.74127    0.21560    0.45854   1.00
C3       0.73856    0.21442    0.54170   1.00
C2       0.75534    0.25095    0.39595   1.00
C2       0.75453    0.24521    0.60622   1.00
C3       0.76749    0.28331    0.41811   1.00
C3       0.77137    0.27667    0.58591   1.00
C3       0.74252    0.21784    0.41696   1.00
C3       0.73851    0.21482    0.58336   1.00
H1       0.77558    0.30721    0.47237   1.00
H1       0.78522    0.30107    0.53306   1.00
C5       0.72698    0.18162    0.47835   1.00
C5       0.72282    0.18230    0.51998   1.00
H1       0.77685    0.30831    0.40451   1.00
H1       0.78373    0.29948    0.60091   1.00
H1       0.73353    0.19483    0.40052   1.00
H1       0.72675    0.19216    0.59848   1.00
C6       0.71690    0.14539    0.45515   1.00
C6       0.70168    0.14980    0.54119   1.00
H2       0.73959    0.14031    0.43345   1.00
H2       0.68246    0.16250    0.56310   1.00
H2       0.71900    0.11916    0.47286   1.00
H2       0.68095    0.13501    0.52228   1.00
C6       0.67537    0.14717    0.43606   1.00
C6       0.72994    0.11880    0.55942   1.00
H2       0.67088    0.17589    0.42292   1.00
H2       0.75422    0.13365    0.57383   1.00
C6       0.66522    0.11565    0.40459   1.00
C6       0.71221    0.08894    0.58911   1.00
H2       0.65383    0.14520    0.45949   1.00
H2       0.74315    0.10243    0.53546   1.00
C6       0.69052    0.12044    0.36735   1.00
C6       0.69836    0.10934    0.62708   1.00
C6       0.67025    0.07373    0.42074   1.00
C6       0.67770    0.06598    0.57107   1.00
C6       0.62187    0.12084    0.39245   1.00
C6       0.74438    0.05914    0.60054   1.00
H2       0.68810    0.14996    0.35558   1.00
H2       0.72190    0.12634    0.64020   1.00
H2       0.72121    0.11478    0.37330   1.00
H2       0.67402    0.12900    0.62154   1.00
H2       0.68140    0.10012    0.34459   1.00
H2       0.68857    0.08803    0.64863   1.00
H2       0.66046    0.05206    0.39955   1.00
H2       0.66738    0.04335    0.59098   1.00
H2       0.70078    0.06761    0.42725   1.00
H2       0.65315    0.08525    0.56494   1.00
H2       0.65337    0.06983    0.44745   1.00
H2       0.68646    0.05200    0.54385   1.00
H2       0.61681    0.14991    0.38042   1.00
H2       0.76933    0.07385    0.61383   1.00
H2       0.61345    0.09959    0.37025   1.00
H2       0.73345    0.03778    0.62149   1.00
H2       0.60245    0.11700    0.41739   1.00
H2       0.75482    0.04320    0.57502   1.00
C4       0.74866    0.48025    0.25460   1.00
C4       0.74721    0.52191    0.25514   1.00
C3       0.78219    0.45897    0.26692   1.00
C3       0.77748    0.54504    0.27180   1.00
C3       0.71560    0.45854    0.24127   1.00
C3       0.71442    0.54170    0.23856   1.00
C2       0.75095    0.39595    0.25534   1.00
C2       0.74521    0.60622    0.25453   1.00
C3       0.78331    0.41811    0.26749   1.00
C3       0.77667    0.58591    0.27137   1.00
C3       0.71784    0.41696    0.24252   1.00
C3       0.71482    0.58336    0.23851   1.00
H1       0.80721    0.47237    0.27558   1.00
H1       0.80107    0.53306    0.28522   1.00
C5       0.68162    0.47835    0.22698   1.00
C5       0.68230    0.51998    0.22282   1.00
H1       0.80831    0.40451    0.27685   1.00
H1       0.79948    0.60091    0.28373   1.00
H1       0.69483    0.40052    0.23353   1.00
H1       0.69216    0.59848    0.22675   1.00
C6       0.64539    0.45515    0.21690   1.00
C6       0.64980    0.54119    0.20168   1.00
H2       0.64031    0.43345    0.23959   1.00
H2       0.66250    0.56310    0.18246   1.00
H2       0.61916    0.47286    0.21900   1.00
H2       0.63501    0.52228    0.18095   1.00
C6       0.64717    0.43606    0.17537   1.00
C6       0.61880    0.55942    0.22994   1.00
H2       0.67589    0.42292    0.17088   1.00
H2       0.63365    0.57383    0.25422   1.00
C6       0.61565    0.40459    0.16522   1.00
C6       0.58894    0.58911    0.21221   1.00
H2       0.64520    0.45949    0.15383   1.00
H2       0.60243    0.53546    0.24315   1.00
C6       0.62044    0.36735    0.19052   1.00
C6       0.60934    0.62708    0.19836   1.00
C6       0.57373    0.42074    0.17025   1.00
C6       0.56598    0.57107    0.17770   1.00
C6       0.62084    0.39245    0.12187   1.00
C6       0.55914    0.60054    0.24438   1.00
H2       0.64996    0.35558    0.18810   1.00
H2       0.62634    0.64020    0.22190   1.00
H2       0.61478    0.37330    0.22121   1.00
H2       0.62900    0.62154    0.17402   1.00
H2       0.60012    0.34459    0.18140   1.00
H2       0.58803    0.64863    0.18857   1.00
H2       0.55206    0.39955    0.16046   1.00
H2       0.54335    0.59098    0.16738   1.00
H2       0.56761    0.42725    0.20078   1.00
H2       0.58525    0.56494    0.15315   1.00
H2       0.56983    0.44745    0.15337   1.00
H2       0.55200    0.54385    0.18646   1.00
H2       0.64991    0.38042    0.11681   1.00
H2       0.57385    0.61383    0.26933   1.00
H2       0.59959    0.37025    0.11345   1.00
H2       0.53778    0.62149    0.23345   1.00
H2       0.61700    0.41739    0.10245   1.00
H2       0.54320    0.57502    0.25482   1.00
C4       0.51975    0.25460    0.25134   1.00
C4       0.47809    0.25514    0.25279   1.00
C3       0.54103    0.26692    0.21781   1.00
C3       0.45496    0.27180    0.22252   1.00
C3       0.54146    0.24127    0.28440   1.00
C3       0.45830    0.23856    0.28558   1.00
C2       0.60405    0.25534    0.24905   1.00
C2       0.39378    0.25453    0.25479   1.00
C3       0.58189    0.26749    0.21669   1.00
C3       0.41409    0.27137    0.22333   1.00
C3       0.58304    0.24252    0.28216   1.00
C3       0.41664    0.23851    0.28518   1.00
H1       0.52763    0.27558    0.19279   1.00
H1       0.46694    0.28522    0.19893   1.00
C5       0.52165    0.22698    0.31838   1.00
C5       0.48002    0.22282    0.31770   1.00
H1       0.59549    0.27685    0.19169   1.00
H1       0.39909    0.28373    0.20052   1.00
H1       0.59948    0.23353    0.30517   1.00
H1       0.40152    0.22675    0.30784   1.00
C6       0.54485    0.21690    0.35461   1.00
C6       0.45881    0.20168    0.35020   1.00
H2       0.56655    0.23959    0.35969   1.00
H2       0.43690    0.18246    0.33750   1.00
H2       0.52714    0.21900    0.38084   1.00
H2       0.47772    0.18095    0.36499   1.00
C6       0.56394    0.17537    0.35283   1.00
C6       0.44058    0.22994    0.38120   1.00
H2       0.57708    0.17088    0.32411   1.00
H2       0.42617    0.25422    0.36635   1.00
C6       0.59541    0.16522    0.38435   1.00
C6       0.41089    0.21221    0.41106   1.00
H2       0.54051    0.15383    0.35480   1.00
H2       0.46454    0.24315    0.39757   1.00
C6       0.63265    0.19052    0.37956   1.00
C6       0.37292    0.19836    0.39066   1.00
C6       0.57926    0.17025    0.42627   1.00
C6       0.42893    0.17770    0.43402   1.00
C6       0.60755    0.12187    0.37916   1.00
C6       0.39946    0.24438    0.44086   1.00
H2       0.64442    0.18810    0.35004   1.00
H2       0.35980    0.22190    0.37366   1.00
H2       0.62670    0.22121    0.38522   1.00
H2       0.37846    0.17402    0.37100   1.00
H2       0.65541    0.18140    0.39988   1.00
H2       0.35137    0.18857    0.41197   1.00
H2       0.60045    0.16046    0.44794   1.00
H2       0.40902    0.16738    0.45665   1.00
H2       0.57275    0.20078    0.43239   1.00
H2       0.43506    0.15315    0.41475   1.00
H2       0.55255    0.15337    0.43017   1.00
H2       0.45615    0.18646    0.44800   1.00
H2       0.61958    0.11681    0.35009   1.00
H2       0.38617    0.26933    0.42615   1.00
H2       0.62975    0.11345    0.40041   1.00
H2       0.37851    0.23345    0.46222   1.00
H2       0.58261    0.10245    0.38300   1.00
H2       0.42498    0.25482    0.45680   1.00
C4       0.98025    0.25460    0.24866   1.00
C4       1.02191    0.25514    0.24721   1.00
C3       0.95897    0.26692    0.28219   1.00
C3       1.04504    0.27180    0.27748   1.00
C3       0.95854    0.24127    0.21560   1.00
C3       1.04170    0.23856    0.21442   1.00
C2       0.89595    0.25534    0.25095   1.00
C2       1.10622    0.25453    0.24521   1.00
C3       0.91811    0.26749    0.28331   1.00
C3       1.08591    0.27137    0.27667   1.00
C3       0.91696    0.24252    0.21784   1.00
C3       1.08336    0.23851    0.21482   1.00
H1       0.97237    0.27558    0.30721   1.00
H1       1.03306    0.28522    0.30107   1.00
C5       0.97835    0.22698    0.18162   1.00
C5       1.01998    0.22282    0.18230   1.00
H1       0.90451    0.27685    0.30831   1.00
H1       1.10091    0.28373    0.29948   1.00
H1       0.90052    0.23353    0.19483   1.00
H1       1.09848    0.22675    0.19216   1.00
C6       0.95515    0.21690    0.14539   1.00
C6       1.04119    0.20168    0.14980   1.00
H2       0.93345    0.23959    0.14031   1.00
H2       1.06310    0.18246    0.16250   1.00
H2       0.97286    0.21900    0.11916   1.00
H2       1.02228    0.18095    0.13501   1.00
C6       0.93606    0.17537    0.14717   1.00
C6       1.05942    0.22994    0.11880   1.00
H2       0.92292    0.17088    0.17589   1.00
H2       1.07383    0.25422    0.13365   1.00
C6       0.90459    0.16522    0.11565   1.00
C6       1.08911    0.21221    0.08894   1.00
H2       0.95949    0.15383    0.14520   1.00
H2       1.03546    0.24315    0.10243   1.00
C6       0.86735    0.19052    0.12044   1.00
C6       1.12708    0.19836    0.10934   1.00
C6       0.92074    0.17025    0.07373   1.00
C6       1.07107    0.17770    0.06598   1.00
C6       0.89245    0.12187    0.12084   1.00
C6       1.10054    0.24438    0.05914   1.00
H2       0.85558    0.18810    0.14996   1.00
H2       1.14020    0.22190    0.12634   1.00
H2       0.87330    0.22121    0.11478   1.00
H2       1.12154    0.17402    0.12900   1.00
H2       0.84459    0.18140    0.10012   1.00
H2       1.14863    0.18857    0.08803   1.00
H2       0.89955    0.16046    0.05206   1.00
H2       1.09098    0.16738    0.04335   1.00
H2       0.92725    0.20078    0.06761   1.00
H2       1.06494    0.15315    0.08525   1.00
H2       0.94745    0.15337    0.06983   1.00
H2       1.04385    0.18646    0.05200   1.00
H2       0.88042    0.11681    0.14991   1.00
H2       1.11383    0.26933    0.07385   1.00
H2       0.87025    0.11345    0.09959   1.00
H2       1.12149    0.23345    0.03778   1.00
H2       0.91739    0.10245    0.11700   1.00
H2       1.07502    0.25482    0.04320   1.00
C4       0.75134    0.01975    0.25460   1.00
C4       0.75279    -0.02191   0.25514   1.00
C3       0.71781    0.04103    0.26692   1.00
C3       0.72252    -0.04504   0.27180   1.00
C3       0.78440    0.04146    0.24127   1.00
C3       0.78558    -0.04170   0.23856   1.00
C2       0.74905    0.10405    0.25534   1.00
C2       0.75479    -0.10622   0.25453   1.00
C3       0.71669    0.08189    0.26749   1.00
C3       0.72333    -0.08591   0.27137   1.00
C3       0.78216    0.08304    0.24252   1.00
C3       0.78518    -0.08336   0.23851   1.00
H1       0.69279    0.02763    0.27558   1.00
H1       0.69893    -0.03306   0.28522   1.00
C5       0.81838    0.02165    0.22698   1.00
C5       0.81770    -0.01998   0.22282   1.00
H1       0.69169    0.09549    0.27685   1.00
H1       0.70052    -0.10091   0.28373   1.00
H1       0.80517    0.09948    0.23353   1.00
H1       0.80784    -0.09848   0.22675   1.00
C6       0.85461    0.04485    0.21690   1.00
C6       0.85020    -0.04119   0.20168   1.00
H2       0.85969    0.06655    0.23959   1.00
H2       0.83750    -0.06310   0.18246   1.00
H2       0.88084    0.02714    0.21900   1.00
H2       0.86499    -0.02228   0.18095   1.00
C6       0.85283    0.06394    0.17537   1.00
C6       0.88120    -0.05942   0.22994   1.00
H2       0.82411    0.07708    0.17088   1.00
H2       0.86635    -0.07383   0.25422   1.00
C6       0.88435    0.09541    0.16522   1.00
C6       0.91106    -0.08911   0.21221   1.00
H2       0.85480    0.04051    0.15383   1.00
H2       0.89757    -0.03546   0.24315   1.00
C6       0.87956    0.13265    0.19052   1.00
C6       0.89066    -0.12708   0.19836   1.00
C6       0.92627    0.07926    0.17025   1.00
C6       0.93402    -0.07107   0.17770   1.00
C6       0.87916    0.10755    0.12187   1.00
C6       0.94086    -0.10054   0.24438   1.00
H2       0.85004    0.14442    0.18810   1.00
H2       0.87366    -0.14020   0.22190   1.00
H2       0.88522    0.12670    0.22121   1.00
H2       0.87100    -0.12154   0.17402   1.00
H2       0.89988    0.15541    0.18140   1.00
H2       0.91197    -0.14863   0.18857   1.00
H2       0.94794    0.10045    0.16046   1.00
H2       0.95665    -0.09098   0.16738   1.00
H2       0.93239    0.07275    0.20078   1.00
H2       0.91475    -0.06494   0.15315   1.00
H2       0.93017    0.05255    0.15337   1.00
H2       0.94800    -0.04385   0.18646   1.00
H2       0.85009    0.11958    0.11681   1.00
H2       0.92615    -0.11383   0.26933   1.00
H2       0.90041    0.12975    0.11345   1.00
H2       0.96222    -0.12149   0.23345   1.00
H2       0.88300    0.08261    0.10245   1.00
H2       0.95680    -0.07502   0.25482   1.00
C4       0.75460    0.25134    0.01975   1.00
C4       0.75514    0.25279    -0.02191   1.00
C3       0.76692    0.21781    0.04103   1.00
C3       0.77180    0.22252    -0.04504   1.00
C3       0.74127    0.28440    0.04146   1.00
C3       0.73856    0.28558    -0.04170   1.00
C2       0.75534    0.24905    0.10405   1.00
C2       0.75453    0.25479    -0.10622   1.00
C3       0.76749    0.21669    0.08189   1.00
C3       0.77137    0.22333    -0.08591   1.00
C3       0.74252    0.28216    0.08304   1.00
C3       0.73851    0.28518    -0.08336   1.00
H1       0.77558    0.19279    0.02763   1.00
H1       0.78522    0.19893    -0.03306   1.00
C5       0.72698    0.31838    0.02165   1.00
C5       0.72282    0.31770    -0.01998   1.00
H1       0.77685    0.19169    0.09549   1.00
H1       0.78373    0.20052    -0.10091   1.00
H1       0.73353    0.30517    0.09948   1.00
H1       0.72675    0.30784    -0.09848   1.00
C6       0.71690    0.35461    0.04485   1.00
C6       0.70168    0.35020    -0.04119   1.00
H2       0.73959    0.35969    0.06655   1.00
H2       0.68246    0.33750    -0.06310   1.00
H2       0.71900    0.38084    0.02714   1.00
H2       0.68095    0.36499    -0.02228   1.00
C6       0.67537    0.35283    0.06394   1.00
C6       0.72994    0.38120    -0.05942   1.00
H2       0.67088    0.32411    0.07708   1.00
H2       0.75422    0.36635    -0.07383   1.00
C6       0.66522    0.38435    0.09541   1.00
C6       0.71221    0.41106    -0.08911   1.00
H2       0.65383    0.35480    0.04051   1.00
H2       0.74315    0.39757    -0.03546   1.00
C6       0.69052    0.37956    0.13265   1.00
C6       0.69836    0.39066    -0.12708   1.00
C6       0.67025    0.42627    0.07926   1.00
C6       0.67770    0.43402    -0.07107   1.00
C6       0.62187    0.37916    0.10755   1.00
C6       0.74438    0.44086    -0.10054   1.00
H2       0.68810    0.35004    0.14442   1.00
H2       0.72190    0.37366    -0.14020   1.00
H2       0.72121    0.38522    0.12670   1.00
H2       0.67402    0.37100    -0.12154   1.00
H2       0.68140    0.39988    0.15541   1.00
H2       0.68857    0.41197    -0.14863   1.00
H2       0.66046    0.44794    0.10045   1.00
H2       0.66738    0.45665    -0.09098   1.00
H2       0.70078    0.43239    0.07275   1.00
H2       0.65315    0.41475    -0.06494   1.00
H2       0.65337    0.43017    0.05255   1.00
H2       0.68646    0.44800    -0.04385   1.00
H2       0.61681    0.35009    0.11958   1.00
H2       0.76933    0.42615    -0.11383   1.00
H2       0.61345    0.40041    0.12975   1.00
H2       0.73345    0.46222    -0.12149   1.00
H2       0.60245    0.38300    0.08261   1.00
H2       0.75482    0.45680    -0.07502   1.00
C4       0.91960    0.91366    1.14525   1.00
C4       0.92014    0.91221    1.18691   1.00
C3       0.93192    0.94719    1.12397   1.00
C3       0.93680    0.94248    1.21004   1.00
C3       0.90627    0.88060    1.12354   1.00
C3       0.90356    0.87942    1.20670   1.00
C2       0.92034    0.91595    1.06095   1.00
C2       0.91953    0.91021    1.27122   1.00
C3       0.93249    0.94831    1.08311   1.00
C3       0.93637    0.94167    1.25091   1.00
C3       0.90752    0.88284    1.08196   1.00
C3       0.90351    0.87982    1.24836   1.00
H1       0.94058    0.97221    1.13737   1.00
H1       0.95022    0.96607    1.19806   1.00
C5       0.89198    0.84662    1.14335   1.00
C5       0.88782    0.84730    1.18498   1.00
H1       0.94185    0.97331    1.06951   1.00
H1       0.94873    0.96448    1.26591   1.00
H1       0.89853    0.85983    1.06552   1.00
H1       0.89175    0.85716    1.26348   1.00
C6       0.88190    0.81039    1.12015   1.00
C6       0.86668    0.81480    1.20619   1.00
H2       0.90459    0.80531    1.09845   1.00
H2       0.84746    0.82750    1.22810   1.00
H2       0.88400    0.78416    1.13786   1.00
H2       0.84595    0.80001    1.18728   1.00
C6       0.84037    0.81217    1.10106   1.00
C6       0.89494    0.78380    1.22442   1.00
H2       0.83588    0.84089    1.08792   1.00
H2       0.91922    0.79865    1.23883   1.00
C6       0.83022    0.78065    1.06959   1.00
C6       0.87721    0.75394    1.25411   1.00
H2       0.81883    0.81020    1.12449   1.00
H2       0.90815    0.76743    1.20046   1.00
C6       0.85552    0.78544    1.03235   1.00
C6       0.86336    0.77434    1.29208   1.00
C6       0.83525    0.73873    1.08574   1.00
C6       0.84270    0.73098    1.23607   1.00
C6       0.78687    0.78584    1.05745   1.00
C6       0.90938    0.72414    1.26554   1.00
H2       0.85310    0.81496    1.02058   1.00
H2       0.88690    0.79134    1.30520   1.00
H2       0.88621    0.77978    1.03830   1.00
H2       0.83902    0.79400    1.28654   1.00
H2       0.84640    0.76512    1.00959   1.00
H2       0.85357    0.75303    1.31363   1.00
H2       0.82546    0.71706    1.06455   1.00
H2       0.83238    0.70835    1.25598   1.00
H2       0.86578    0.73261    1.09225   1.00
H2       0.81815    0.75025    1.22994   1.00
H2       0.81837    0.73483    1.11245   1.00
H2       0.85146    0.71700    1.20885   1.00
H2       0.78181    0.81491    1.04542   1.00
H2       0.93433    0.73885    1.27883   1.00
H2       0.77845    0.76459    1.03525   1.00
H2       0.89845    0.70278    1.28649   1.00
H2       0.76745    0.78200    1.08239   1.00
H2       0.91982    0.70820    1.24002   1.00
C4       0.91366    1.14525    0.91960   1.00
C4       0.91221    1.18691    0.92014   1.00
C3       0.94719    1.12397    0.93192   1.00
C3       0.94248    1.21004    0.93680   1.00
C3       0.88060    1.12354    0.90627   1.00
C3       0.87942    1.20670    0.90356   1.00
C2       0.91595    1.06095    0.92034   1.00
C2       0.91021    1.27122    0.91953   1.00
C3       0.94831    1.08311    0.93249   1.00
C3       0.94167    1.25091    0.93637   1.00
C3       0.88284    1.08196    0.90752   1.00
C3       0.87982    1.24836    0.90351   1.00
H1       0.97221    1.13737    0.94058   1.00
H1       0.96607    1.19806    0.95022   1.00
C5       0.84662    1.14335    0.89198   1.00
C5       0.84730    1.18498    0.88782   1.00
H1       0.97331    1.06951    0.94185   1.00
H1       0.96448    1.26591    0.94873   1.00
H1       0.85983    1.06552    0.89853   1.00
H1       0.85716    1.26348    0.89175   1.00
C6       0.81039    1.12015    0.88190   1.00
C6       0.81480    1.20619    0.86668   1.00
H2       0.80531    1.09845    0.90459   1.00
H2       0.82750    1.22810    0.84746   1.00
H2       0.78416    1.13786    0.88400   1.00
H2       0.80001    1.18728    0.84595   1.00
C6       0.81217    1.10106    0.84037   1.00
C6       0.78380    1.22442    0.89494   1.00
H2       0.84089    1.08792    0.83588   1.00
H2       0.79865    1.23883    0.91922   1.00
C6       0.78065    1.06959    0.83022   1.00
C6       0.75394    1.25411    0.87721   1.00
H2       0.81020    1.12449    0.81883   1.00
H2       0.76743    1.20046    0.90815   1.00
C6       0.78544    1.03235    0.85552   1.00
C6       0.77434    1.29208    0.86336   1.00
C6       0.73873    1.08574    0.83525   1.00
C6       0.73098    1.23607    0.84270   1.00
C6       0.78584    1.05745    0.78687   1.00
C6       0.72414    1.26554    0.90938   1.00
H2       0.81496    1.02058    0.85310   1.00
H2       0.79134    1.30520    0.88690   1.00
H2       0.77978    1.03830    0.88621   1.00
H2       0.79400    1.28654    0.83902   1.00
H2       0.76512    1.00959    0.84640   1.00
H2       0.75303    1.31363    0.85357   1.00
H2       0.71706    1.06455    0.82546   1.00
H2       0.70835    1.25598    0.83238   1.00
H2       0.73261    1.09225    0.86578   1.00
H2       0.75025    1.22994    0.81815   1.00
H2       0.73483    1.11245    0.81837   1.00
H2       0.71700    1.20885    0.85146   1.00
H2       0.81491    1.04542    0.78181   1.00
H2       0.73885    1.27883    0.93433   1.00
H2       0.76459    1.03525    0.77845   1.00
H2       0.70278    1.28649    0.89845   1.00
H2       0.78200    1.08239    0.76745   1.00
H2       0.70820    1.24002    0.91982   1.00
C4       0.68475    0.91960    0.91634   1.00
C4       0.64309    0.92014    0.91779   1.00
C3       0.70603    0.93192    0.88281   1.00
C3       0.61996    0.93680    0.88752   1.00
C3       0.70646    0.90627    0.94940   1.00
C3       0.62330    0.90356    0.95058   1.00
C2       0.76905    0.92034    0.91405   1.00
C2       0.55878    0.91953    0.91979   1.00
C3       0.74689    0.93249    0.88169   1.00
C3       0.57909    0.93637    0.88833   1.00
C3       0.74804    0.90752    0.94716   1.00
C3       0.58164    0.90351    0.95018   1.00
H1       0.69263    0.94058    0.85779   1.00
H1       0.63194    0.95022    0.86393   1.00
C5       0.68665    0.89198    0.98338   1.00
C5       0.64502    0.88782    0.98270   1.00
H1       0.76049    0.94185    0.85669   1.00
H1       0.56409    0.94873    0.86552   1.00
H1       0.76448    0.89853    0.97017   1.00
H1       0.56652    0.89175    0.97284   1.00
C6       0.70985    0.88190    1.01961   1.00
C6       0.62381    0.86668    1.01520   1.00
H2       0.73155    0.90459    1.02469   1.00
H2       0.60190    0.84746    1.00250   1.00
H2       0.69214    0.88400    1.04584   1.00
H2       0.64272    0.84595    1.02999   1.00
C6       0.72894    0.84037    1.01783   1.00
C6       0.60558    0.89494    1.04620   1.00
H2       0.74208    0.83588    0.98911   1.00
H2       0.59117    0.91922    1.03135   1.00
C6       0.76041    0.83022    1.04935   1.00
C6       0.57589    0.87721    1.07606   1.00
H2       0.70551    0.81883    1.01980   1.00
H2       0.62954    0.90815    1.06257   1.00
C6       0.79765    0.85552    1.04456   1.00
C6       0.53792    0.86336    1.05566   1.00
C6       0.74426    0.83525    1.09127   1.00
C6       0.59393    0.84270    1.09902   1.00
C6       0.77255    0.78687    1.04416   1.00
C6       0.56446    0.90938    1.10586   1.00
H2       0.80942    0.85310    1.01504   1.00
H2       0.52480    0.88690    1.03866   1.00
H2       0.79170    0.88621    1.05022   1.00
H2       0.54346    0.83902    1.03600   1.00
H2       0.82041    0.84640    1.06488   1.00
H2       0.51637    0.85357    1.07697   1.00
H2       0.76545    0.82546    1.11294   1.00
H2       0.57402    0.83238    1.12165   1.00
H2       0.73775    0.86578    1.09739   1.00
H2       0.60006    0.81815    1.07975   1.00
H2       0.71755    0.81837    1.09517   1.00
H2       0.62115    0.85146    1.11300   1.00
H2       0.78458    0.78181    1.01509   1.00
H2       0.55117    0.93433    1.09115   1.00
H2       0.79475    0.77845    1.06541   1.00
H2       0.54351    0.89845    1.12722   1.00
H2       0.74761    0.76745    1.04800   1.00
H2       0.58998    0.91982    1.12180   1.00
C4       1.14525    0.91960    0.91366   1.00
C4       1.18691    0.92014    0.91221   1.00
C3       1.12397    0.93192    0.94719   1.00
C3       1.21004    0.93680    0.94248   1.00
C3       1.12354    0.90627    0.88060   1.00
C3       1.20670    0.90356    0.87942   1.00
C2       1.06095    0.92034    0.91595   1.00
C2       1.27122    0.91953    0.91021   1.00
C3       1.08311    0.93249    0.94831   1.00
C3       1.25091    0.93637    0.94167   1.00
C3       1.08196    0.90752    0.88284   1.00
C3       1.24836    0.90351    0.87982   1.00
H1       1.13737    0.94058    0.97221   1.00
H1       1.19806    0.95022    0.96607   1.00
C5       1.14335    0.89198    0.84662   1.00
C5       1.18498    0.88782    0.84730   1.00
H1       1.06951    0.94185    0.97331   1.00
H1       1.26591    0.94873    0.96448   1.00
H1       1.06552    0.89853    0.85983   1.00
H1       1.26348    0.89175    0.85716   1.00
C6       1.12015    0.88190    0.81039   1.00
C6       1.20619    0.86668    0.81480   1.00
H2       1.09845    0.90459    0.80531   1.00
H2       1.22810    0.84746    0.82750   1.00
H2       1.13786    0.88400    0.78416   1.00
H2       1.18728    0.84595    0.80001   1.00
C6       1.10106    0.84037    0.81217   1.00
C6       1.22442    0.89494    0.78380   1.00
H2       1.08792    0.83588    0.84089   1.00
H2       1.23883    0.91922    0.79865   1.00
C6       1.06959    0.83022    0.78065   1.00
C6       1.25411    0.87721    0.75394   1.00
H2       1.12449    0.81883    0.81020   1.00
H2       1.20046    0.90815    0.76743   1.00
C6       1.03235    0.85552    0.78544   1.00
C6       1.29208    0.86336    0.77434   1.00
C6       1.08574    0.83525    0.73873   1.00
C6       1.23607    0.84270    0.73098   1.00
C6       1.05745    0.78687    0.78584   1.00
C6       1.26554    0.90938    0.72414   1.00
H2       1.02058    0.85310    0.81496   1.00
H2       1.30520    0.88690    0.79134   1.00
H2       1.03830    0.88621    0.77978   1.00
H2       1.28654    0.83902    0.79400   1.00
H2       1.00959    0.84640    0.76512   1.00
H2       1.31363    0.85357    0.75303   1.00
H2       1.06455    0.82546    0.71706   1.00
H2       1.25598    0.83238    0.70835   1.00
H2       1.09225    0.86578    0.73261   1.00
H2       1.22994    0.81815    0.75025   1.00
H2       1.11245    0.81837    0.73483   1.00
H2       1.20885    0.85146    0.71700   1.00
H2       1.04542    0.78181    0.81491   1.00
H2       1.27883    0.93433    0.73885   1.00
H2       1.03525    0.77845    0.76459   1.00
H2       1.28649    0.89845    0.70278   1.00
H2       1.08239    0.76745    0.78200   1.00
H2       1.24002    0.91982    0.70820   1.00
C4       0.91634    0.68475    0.91960   1.00
C4       0.91779    0.64309    0.92014   1.00
C3       0.88281    0.70603    0.93192   1.00
C3       0.88752    0.61996    0.93680   1.00
C3       0.94940    0.70646    0.90627   1.00
C3       0.95058    0.62330    0.90356   1.00
C2       0.91405    0.76905    0.92034   1.00
C2       0.91979    0.55878    0.91953   1.00
C3       0.88169    0.74689    0.93249   1.00
C3       0.88833    0.57909    0.93637   1.00
C3       0.94716    0.74804    0.90752   1.00
C3       0.95018    0.58164    0.90351   1.00
H1       0.85779    0.69263    0.94058   1.00
H1       0.86393    0.63194    0.95022   1.00
C5       0.98338    0.68665    0.89198   1.00
C5       0.98270    0.64502    0.88782   1.00
H1       0.85669    0.76049    0.94185   1.00
H1       0.86552    0.56409    0.94873   1.00
H1       0.97017    0.76448    0.89853   1.00
H1       0.97284    0.56652    0.89175   1.00
C6       1.01961    0.70985    0.88190   1.00
C6       1.01520    0.62381    0.86668   1.00
H2       1.02469    0.73155    0.90459   1.00
H2       1.00250    0.60190    0.84746   1.00
H2       1.04584    0.69214    0.88400   1.00
H2       1.02999    0.64272    0.84595   1.00
C6       1.01783    0.72894    0.84037   1.00
C6       1.04620    0.60558    0.89494   1.00
H2       0.98911    0.74208    0.83588   1.00
H2       1.03135    0.59117    0.91922   1.00
C6       1.04935    0.76041    0.83022   1.00
C6       1.07606    0.57589    0.87721   1.00
H2       1.01980    0.70551    0.81883   1.00
H2       1.06257    0.62954    0.90815   1.00
C6       1.04456    0.79765    0.85552   1.00
C6       1.05566    0.53792    0.86336   1.00
C6       1.09127    0.74426    0.83525   1.00
C6       1.09902    0.59393    0.84270   1.00
C6       1.04416    0.77255    0.78687   1.00
C6       1.10586    0.56446    0.90938   1.00
H2       1.01504    0.80942    0.85310   1.00
H2       1.03866    0.52480    0.88690   1.00
H2       1.05022    0.79170    0.88621   1.00
H2       1.03600    0.54346    0.83902   1.00
H2       1.06488    0.82041    0.84640   1.00
H2       1.07697    0.51637    0.85357   1.00
H2       1.11294    0.76545    0.82546   1.00
H2       1.12165    0.57402    0.83238   1.00
H2       1.09739    0.73775    0.86578   1.00
H2       1.07975    0.60006    0.81815   1.00
H2       1.09517    0.71755    0.81837   1.00
H2       1.11300    0.62115    0.85146   1.00
H2       1.01509    0.78458    0.78181   1.00
H2       1.09115    0.55117    0.93433   1.00
H2       1.06541    0.79475    0.77845   1.00
H2       1.12722    0.54351    0.89845   1.00
H2       1.04800    0.74761    0.76745   1.00
H2       1.12180    0.58998    0.91982   1.00
C4       0.91960    0.91634    0.68475   1.00
C4       0.92014    0.91779    0.64309   1.00
C3       0.93192    0.88281    0.70603   1.00
C3       0.93680    0.88752    0.61996   1.00
C3       0.90627    0.94940    0.70646   1.00
C3       0.90356    0.95058    0.62330   1.00
C2       0.92034    0.91405    0.76905   1.00
C2       0.91953    0.91979    0.55878   1.00
C3       0.93249    0.88169    0.74689   1.00
C3       0.93637    0.88833    0.57909   1.00
C3       0.90752    0.94716    0.74804   1.00
C3       0.90351    0.95018    0.58164   1.00
H1       0.94058    0.85779    0.69263   1.00
H1       0.95022    0.86393    0.63194   1.00
C5       0.89198    0.98338    0.68665   1.00
C5       0.88782    0.98270    0.64502   1.00
H1       0.94185    0.85669    0.76049   1.00
H1       0.94873    0.86552    0.56409   1.00
H1       0.89853    0.97017    0.76448   1.00
H1       0.89175    0.97284    0.56652   1.00
C6       0.88190    1.01961    0.70985   1.00
C6       0.86668    1.01520    0.62381   1.00
H2       0.90459    1.02469    0.73155   1.00
H2       0.84746    1.00250    0.60190   1.00
H2       0.88400    1.04584    0.69214   1.00
H2       0.84595    1.02999    0.64272   1.00
C6       0.84037    1.01783    0.72894   1.00
C6       0.89494    1.04620    0.60558   1.00
H2       0.83588    0.98911    0.74208   1.00
H2       0.91922    1.03135    0.59117   1.00
C6       0.83022    1.04935    0.76041   1.00
C6       0.87721    1.07606    0.57589   1.00
H2       0.81883    1.01980    0.70551   1.00
H2       0.90815    1.06257    0.62954   1.00
C6       0.85552    1.04456    0.79765   1.00
C6       0.86336    1.05566    0.53792   1.00
C6       0.83525    1.09127    0.74426   1.00
C6       0.84270    1.09902    0.59393   1.00
C6       0.78687    1.04416    0.77255   1.00
C6       0.90938    1.10586    0.56446   1.00
H2       0.85310    1.01504    0.80942   1.00
H2       0.88690    1.03866    0.52480   1.00
H2       0.88621    1.05022    0.79170   1.00
H2       0.83902    1.03600    0.54346   1.00
H2       0.84640    1.06488    0.82041   1.00
H2       0.85357    1.07697    0.51637   1.00
H2       0.82546    1.11294    0.76545   1.00
H2       0.83238    1.12165    0.57402   1.00
H2       0.86578    1.09739    0.73775   1.00
H2       0.81815    1.07975    0.60006   1.00
H2       0.81837    1.09517    0.71755   1.00
H2       0.85146    1.11300    0.62115   1.00
H2       0.78181    1.01509    0.78458   1.00
H2       0.93433    1.09115    0.55117   1.00
H2       0.77845    1.06541    0.79475   1.00
H2       0.89845    1.12722    0.54351   1.00
H2       0.76745    1.04800    0.74761   1.00
H2       0.91982    1.12180    0.58998   1.00
C4       0.41960    0.41366    1.14525   1.00
C4       0.42014    0.41221    1.18691   1.00
C3       0.43192    0.44719    1.12397   1.00
C3       0.43680    0.44248    1.21004   1.00
C3       0.40627    0.38060    1.12354   1.00
C3       0.40356    0.37942    1.20670   1.00
C2       0.42034    0.41595    1.06095   1.00
C2       0.41953    0.41021    1.27122   1.00
C3       0.43249    0.44831    1.08311   1.00
C3       0.43637    0.44167    1.25091   1.00
C3       0.40752    0.38284    1.08196   1.00
C3       0.40351    0.37982    1.24836   1.00
H1       0.44058    0.47221    1.13737   1.00
H1       0.45022    0.46607    1.19806   1.00
C5       0.39198    0.34662    1.14335   1.00
C5       0.38782    0.34730    1.18498   1.00
H1       0.44185    0.47331    1.06951   1.00
H1       0.44873    0.46448    1.26591   1.00
H1       0.39853    0.35983    1.06552   1.00
H1       0.39175    0.35716    1.26348   1.00
C6       0.38190    0.31039    1.12015   1.00
C6       0.36668    0.31480    1.20619   1.00
H2       0.40459    0.30531    1.09845   1.00
H2       0.34746    0.32750    1.22810   1.00
H2       0.38400    0.28416    1.13786   1.00
H2       0.34595    0.30001    1.18728   1.00
C6       0.34037    0.31217    1.10106   1.00
C6       0.39494    0.28380    1.22442   1.00
H2       0.33588    0.34089    1.08792   1.00
H2       0.41922    0.29865    1.23883   1.00
C6       0.33022    0.28065    1.06959   1.00
C6       0.37721    0.25394    1.25411   1.00
H2       0.31883    0.31020    1.12449   1.00
H2       0.40815    0.26743    1.20046   1.00
C6       0.35552    0.28544    1.03235   1.00
C6       0.36336    0.27434    1.29208   1.00
C6       0.33525    0.23873    1.08574   1.00
C6       0.34270    0.23098    1.23607   1.00
C6       0.28687    0.28584    1.05745   1.00
C6       0.40938    0.22414    1.26554   1.00
H2       0.35310    0.31496    1.02058   1.00
H2       0.38690    0.29134    1.30520   1.00
H2       0.38621    0.27978    1.03830   1.00
H2       0.33902    0.29400    1.28654   1.00
H2       0.34640    0.26512    1.00959   1.00
H2       0.35357    0.25303    1.31363   1.00
H2       0.32546    0.21706    1.06455   1.00
H2       0.33238    0.20835    1.25598   1.00
H2       0.36578    0.23261    1.09225   1.00
H2       0.31815    0.25025    1.22994   1.00
H2       0.31837    0.23483    1.11245   1.00
H2       0.35146    0.21700    1.20885   1.00
H2       0.28181    0.31491    1.04542   1.00
H2       0.43433    0.23885    1.27883   1.00
H2       0.27845    0.26459    1.03525   1.00
H2       0.39845    0.20278    1.28649   1.00
H2       0.26745    0.28200    1.08239   1.00
H2       0.41982    0.20820    1.24002   1.00
C4       0.41366    0.64525    0.91960   1.00
C4       0.41221    0.68691    0.92014   1.00
C3       0.44719    0.62397    0.93192   1.00
C3       0.44248    0.71004    0.93680   1.00
C3       0.38060    0.62354    0.90627   1.00
C3       0.37942    0.70670    0.90356   1.00
C2       0.41595    0.56095    0.92034   1.00
C2       0.41021    0.77122    0.91953   1.00
C3       0.44831    0.58311    0.93249   1.00
C3       0.44167    0.75091    0.93637   1.00
C3       0.38284    0.58196    0.90752   1.00
C3       0.37982    0.74836    0.90351   1.00
H1       0.47221    0.63737    0.94058   1.00
H1       0.46607    0.69806    0.95022   1.00
C5       0.34662    0.64335    0.89198   1.00
C5       0.34730    0.68498    0.88782   1.00
H1       0.47331    0.56951    0.94185   1.00
H1       0.46448    0.76591    0.94873   1.00
H1       0.35983    0.56552    0.89853   1.00
H1       0.35716    0.76348    0.89175   1.00
C6       0.31039    0.62015    0.88190   1.00
C6       0.31480    0.70619    0.86668   1.00
H2       0.30531    0.59845    0.90459   1.00
H2       0.32750    0.72810    0.84746   1.00
H2       0.28416    0.63786    0.88400   1.00
H2       0.30001    0.68728    0.84595   1.00
C6       0.31217    0.60106    0.84037   1.00
C6       0.28380    0.72442    0.89494   1.00
H2       0.34089    0.58792    0.83588   1.00
H2       0.29865    0.73883    0.91922   1.00
C6       0.28065    0.56959    0.83022   1.00
C6       0.25394    0.75411    0.87721   1.00
H2       0.31020    0.62449    0.81883   1.00
H2       0.26743    0.70046    0.90815   1.00
C6       0.28544    0.53235    0.85552   1.00
C6       0.27434    0.79208    0.86336   1.00
C6       0.23873    0.58574    0.83525   1.00
C6       0.23098    0.73607    0.84270   1.00
C6       0.28584    0.55745    0.78687   1.00
C6       0.22414    0.76554    0.90938   1.00
H2       0.31496    0.52058    0.85310   1.00
H2       0.29134    0.80520    0.88690   1.00
H2       0.27978    0.53830    0.88621   1.00
H2       0.29400    0.78654    0.83902   1.00
H2       0.26512    0.50959    0.84640   1.00
H2       0.25303    0.81363    0.85357   1.00
H2       0.21706    0.56455    0.82546   1.00
H2       0.20835    0.75598    0.83238   1.00
H2       0.23261    0.59225    0.86578   1.00
H2       0.25025    0.72994    0.81815   1.00
H2       0.23483    0.61245    0.81837   1.00
H2       0.21700    0.70885    0.85146   1.00
H2       0.31491    0.54542    0.78181   1.00
H2       0.23885    0.77883    0.93433   1.00
H2       0.26459    0.53525    0.77845   1.00
H2       0.20278    0.78649    0.89845   1.00
H2       0.28200    0.58239    0.76745   1.00
H2       0.20820    0.74002    0.91982   1.00
C4       0.18475    0.41960    0.91634   1.00
C4       0.14309    0.42014    0.91779   1.00
C3       0.20603    0.43192    0.88281   1.00
C3       0.11996    0.43680    0.88752   1.00
C3       0.20646    0.40627    0.94940   1.00
C3       0.12330    0.40356    0.95058   1.00
C2       0.26905    0.42034    0.91405   1.00
C2       0.05878    0.41953    0.91979   1.00
C3       0.24689    0.43249    0.88169   1.00
C3       0.07909    0.43637    0.88833   1.00
C3       0.24804    0.40752    0.94716   1.00
C3       0.08164    0.40351    0.95018   1.00
H1       0.19263    0.44058    0.85779   1.00
H1       0.13194    0.45022    0.86393   1.00
C5       0.18665    0.39198    0.98338   1.00
C5       0.14502    0.38782    0.98270   1.00
H1       0.26049    0.44185    0.85669   1.00
H1       0.06409    0.44873    0.86552   1.00
H1       0.26448    0.39853    0.97017   1.00
H1       0.06652    0.39175    0.97284   1.00
C6       0.20985    0.38190    1.01961   1.00
C6       0.12381    0.36668    1.01520   1.00
H2       0.23155    0.40459    1.02469   1.00
H2       0.10190    0.34746    1.00250   1.00
H2       0.19214    0.38400    1.04584   1.00
H2       0.14272    0.34595    1.02999   1.00
C6       0.22894    0.34037    1.01783   1.00
C6       0.10558    0.39494    1.04620   1.00
H2       0.24208    0.33588    0.98911   1.00
H2       0.09117    0.41922    1.03135   1.00
C6       0.26041    0.33022    1.04935   1.00
C6       0.07589    0.37721    1.07606   1.00
H2       0.20551    0.31883    1.01980   1.00
H2       0.12954    0.40815    1.06257   1.00
C6       0.29765    0.35552    1.04456   1.00
C6       0.03792    0.36336    1.05566   1.00
C6       0.24426    0.33525    1.09127   1.00
C6       0.09393    0.34270    1.09902   1.00
C6       0.27255    0.28687    1.04416   1.00
C6       0.06446    0.40938    1.10586   1.00
H2       0.30942    0.35310    1.01504   1.00
H2       0.02480    0.38690    1.03866   1.00
H2       0.29170    0.38621    1.05022   1.00
H2       0.04346    0.33902    1.03600   1.00
H2       0.32041    0.34640    1.06488   1.00
H2       0.01637    0.35357    1.07697   1.00
H2       0.26545    0.32546    1.11294   1.00
H2       0.07402    0.33238    1.12165   1.00
H2       0.23775    0.36578    1.09739   1.00
H2       0.10006    0.31815    1.07975   1.00
H2       0.21755    0.31837    1.09517   1.00
H2       0.12115    0.35146    1.11300   1.00
H2       0.28458    0.28181    1.01509   1.00
H2       0.05117    0.43433    1.09115   1.00
H2       0.29475    0.27845    1.06541   1.00
H2       0.04351    0.39845    1.12722   1.00
H2       0.24761    0.26745    1.04800   1.00
H2       0.08998    0.41982    1.12180   1.00
C4       0.64525    0.41960    0.91366   1.00
C4       0.68691    0.42014    0.91221   1.00
C3       0.62397    0.43192    0.94719   1.00
C3       0.71004    0.43680    0.94248   1.00
C3       0.62354    0.40627    0.88060   1.00
C3       0.70670    0.40356    0.87942   1.00
C2       0.56095    0.42034    0.91595   1.00
C2       0.77122    0.41953    0.91021   1.00
C3       0.58311    0.43249    0.94831   1.00
C3       0.75091    0.43637    0.94167   1.00
C3       0.58196    0.40752    0.88284   1.00
C3       0.74836    0.40351    0.87982   1.00
H1       0.63737    0.44058    0.97221   1.00
H1       0.69806    0.45022    0.96607   1.00
C5       0.64335    0.39198    0.84662   1.00
C5       0.68498    0.38782    0.84730   1.00
H1       0.56951    0.44185    0.97331   1.00
H1       0.76591    0.44873    0.96448   1.00
H1       0.56552    0.39853    0.85983   1.00
H1       0.76348    0.39175    0.85716   1.00
C6       0.62015    0.38190    0.81039   1.00
C6       0.70619    0.36668    0.81480   1.00
H2       0.59845    0.40459    0.80531   1.00
H2       0.72810    0.34746    0.82750   1.00
H2       0.63786    0.38400    0.78416   1.00
H2       0.68728    0.34595    0.80001   1.00
C6       0.60106    0.34037    0.81217   1.00
C6       0.72442    0.39494    0.78380   1.00
H2       0.58792    0.33588    0.84089   1.00
H2       0.73883    0.41922    0.79865   1.00
C6       0.56959    0.33022    0.78065   1.00
C6       0.75411    0.37721    0.75394   1.00
H2       0.62449    0.31883    0.81020   1.00
H2       0.70046    0.40815    0.76743   1.00
C6       0.53235    0.35552    0.78544   1.00
C6       0.79208    0.36336    0.77434   1.00
C6       0.58574    0.33525    0.73873   1.00
C6       0.73607    0.34270    0.73098   1.00
C6       0.55745    0.28687    0.78584   1.00
C6       0.76554    0.40938    0.72414   1.00
H2       0.52058    0.35310    0.81496   1.00
H2       0.80520    0.38690    0.79134   1.00
H2       0.53830    0.38621    0.77978   1.00
H2       0.78654    0.33902    0.79400   1.00
H2       0.50959    0.34640    0.76512   1.00
H2       0.81363    0.35357    0.75303   1.00
H2       0.56455    0.32546    0.71706   1.00
H2       0.75598    0.33238    0.70835   1.00
H2       0.59225    0.36578    0.73261   1.00
H2       0.72994    0.31815    0.75025   1.00
H2       0.61245    0.31837    0.73483   1.00
H2       0.70885    0.35146    0.71700   1.00
H2       0.54542    0.28181    0.81491   1.00
H2       0.77883    0.43433    0.73885   1.00
H2       0.53525    0.27845    0.76459   1.00
H2       0.78649    0.39845    0.70278   1.00
H2       0.58239    0.26745    0.78200   1.00
H2       0.74002    0.41982    0.70820   1.00
C4       0.41634    0.18475    0.91960   1.00
C4       0.41779    0.14309    0.92014   1.00
C3       0.38281    0.20603    0.93192   1.00
C3       0.38752    0.11996    0.93680   1.00
C3       0.44940    0.20646    0.90627   1.00
C3       0.45058    0.12330    0.90356   1.00
C2       0.41405    0.26905    0.92034   1.00
C2       0.41979    0.05878    0.91953   1.00
C3       0.38169    0.24689    0.93249   1.00
C3       0.38833    0.07909    0.93637   1.00
C3       0.44716    0.24804    0.90752   1.00
C3       0.45018    0.08164    0.90351   1.00
H1       0.35779    0.19263    0.94058   1.00
H1       0.36393    0.13194    0.95022   1.00
C5       0.48338    0.18665    0.89198   1.00
C5       0.48270    0.14502    0.88782   1.00
H1       0.35669    0.26049    0.94185   1.00
H1       0.36552    0.06409    0.94873   1.00
H1       0.47017    0.26448    0.89853   1.00
H1       0.47284    0.06652    0.89175   1.00
C6       0.51961    0.20985    0.88190   1.00
C6       0.51520    0.12381    0.86668   1.00
H2       0.52469    0.23155    0.90459   1.00
H2       0.50250    0.10190    0.84746   1.00
H2       0.54584    0.19214    0.88400   1.00
H2       0.52999    0.14272    0.84595   1.00
C6       0.51783    0.22894    0.84037   1.00
C6       0.54620    0.10558    0.89494   1.00
H2       0.48911    0.24208    0.83588   1.00
H2       0.53135    0.09117    0.91922   1.00
C6       0.54935    0.26041    0.83022   1.00
C6       0.57606    0.07589    0.87721   1.00
H2       0.51980    0.20551    0.81883   1.00
H2       0.56257    0.12954    0.90815   1.00
C6       0.54456    0.29765    0.85552   1.00
C6       0.55566    0.03792    0.86336   1.00
C6       0.59127    0.24426    0.83525   1.00
C6       0.59902    0.09393    0.84270   1.00
C6       0.54416    0.27255    0.78687   1.00
C6       0.60586    0.06446    0.90938   1.00
H2       0.51504    0.30942    0.85310   1.00
H2       0.53866    0.02480    0.88690   1.00
H2       0.55022    0.29170    0.88621   1.00
H2       0.53600    0.04346    0.83902   1.00
H2       0.56488    0.32041    0.84640   1.00
H2       0.57697    0.01637    0.85357   1.00
H2       0.61294    0.26545    0.82546   1.00
H2       0.62165    0.07402    0.83238   1.00
H2       0.59739    0.23775    0.86578   1.00
H2       0.57975    0.10006    0.81815   1.00
H2       0.59517    0.21755    0.81837   1.00
H2       0.61300    0.12115    0.85146   1.00
H2       0.51509    0.28458    0.78181   1.00
H2       0.59115    0.05117    0.93433   1.00
H2       0.56541    0.29475    0.77845   1.00
H2       0.62722    0.04351    0.89845   1.00
H2       0.54800    0.24761    0.76745   1.00
H2       0.62180    0.08998    0.91982   1.00
C4       0.41960    0.41634    0.68475   1.00
C4       0.42014    0.41779    0.64309   1.00
C3       0.43192    0.38281    0.70603   1.00
C3       0.43680    0.38752    0.61996   1.00
C3       0.40627    0.44940    0.70646   1.00
C3       0.40356    0.45058    0.62330   1.00
C2       0.42034    0.41405    0.76905   1.00
C2       0.41953    0.41979    0.55878   1.00
C3       0.43249    0.38169    0.74689   1.00
C3       0.43637    0.38833    0.57909   1.00
C3       0.40752    0.44716    0.74804   1.00
C3       0.40351    0.45018    0.58164   1.00
H1       0.44058    0.35779    0.69263   1.00
H1       0.45022    0.36393    0.63194   1.00
C5       0.39198    0.48338    0.68665   1.00
C5       0.38782    0.48270    0.64502   1.00
H1       0.44185    0.35669    0.76049   1.00
H1       0.44873    0.36552    0.56409   1.00
H1       0.39853    0.47017    0.76448   1.00
H1       0.39175    0.47284    0.56652   1.00
C6       0.38190    0.51961    0.70985   1.00
C6       0.36668    0.51520    0.62381   1.00
H2       0.40459    0.52469    0.73155   1.00
H2       0.34746    0.50250    0.60190   1.00
H2       0.38400    0.54584    0.69214   1.00
H2       0.34595    0.52999    0.64272   1.00
C6       0.34037    0.51783    0.72894   1.00
C6       0.39494    0.54620    0.60558   1.00
H2       0.33588    0.48911    0.74208   1.00
H2       0.41922    0.53135    0.59117   1.00
C6       0.33022    0.54935    0.76041   1.00
C6       0.37721    0.57606    0.57589   1.00
H2       0.31883    0.51980    0.70551   1.00
H2       0.40815    0.56257    0.62954   1.00
C6       0.35552    0.54456    0.79765   1.00
C6       0.36336    0.55566    0.53792   1.00
C6       0.33525    0.59127    0.74426   1.00
C6       0.34270    0.59902    0.59393   1.00
C6       0.28687    0.54416    0.77255   1.00
C6       0.40938    0.60586    0.56446   1.00
H2       0.35310    0.51504    0.80942   1.00
H2       0.38690    0.53866    0.52480   1.00
H2       0.38621    0.55022    0.79170   1.00
H2       0.33902    0.53600    0.54346   1.00
H2       0.34640    0.56488    0.82041   1.00
H2       0.35357    0.57697    0.51637   1.00
H2       0.32546    0.61294    0.76545   1.00
H2       0.33238    0.62165    0.57402   1.00
H2       0.36578    0.59739    0.73775   1.00
H2       0.31815    0.57975    0.60006   1.00
H2       0.31837    0.59517    0.71755   1.00
H2       0.35146    0.61300    0.62115   1.00
H2       0.28181    0.51509    0.78458   1.00
H2       0.43433    0.59115    0.55117   1.00
H2       0.27845    0.56541    0.79475   1.00
H2       0.39845    0.62722    0.54351   1.00
H2       0.26745    0.54800    0.74761   1.00
H2       0.41982    0.62180    0.58998   1.00
C4       0.41960    0.91366    0.64525   1.00
C4       0.42014    0.91221    0.68691   1.00
C3       0.43192    0.94719    0.62397   1.00
C3       0.43680    0.94248    0.71004   1.00
C3       0.40627    0.88060    0.62354   1.00
C3       0.40356    0.87942    0.70670   1.00
C2       0.42034    0.91595    0.56095   1.00
C2       0.41953    0.91021    0.77122   1.00
C3       0.43249    0.94831    0.58311   1.00
C3       0.43637    0.94167    0.75091   1.00
C3       0.40752    0.88284    0.58196   1.00
C3       0.40351    0.87982    0.74836   1.00
H1       0.44058    0.97221    0.63737   1.00
H1       0.45022    0.96607    0.69806   1.00
C5       0.39198    0.84662    0.64335   1.00
C5       0.38782    0.84730    0.68498   1.00
H1       0.44185    0.97331    0.56951   1.00
H1       0.44873    0.96448    0.76591   1.00
H1       0.39853    0.85983    0.56552   1.00
H1       0.39175    0.85716    0.76348   1.00
C6       0.38190    0.81039    0.62015   1.00
C6       0.36668    0.81480    0.70619   1.00
H2       0.40459    0.80531    0.59845   1.00
H2       0.34746    0.82750    0.72810   1.00
H2       0.38400    0.78416    0.63786   1.00
H2       0.34595    0.80001    0.68728   1.00
C6       0.34037    0.81217    0.60106   1.00
C6       0.39494    0.78380    0.72442   1.00
H2       0.33588    0.84089    0.58792   1.00
H2       0.41922    0.79865    0.73883   1.00
C6       0.33022    0.78065    0.56959   1.00
C6       0.37721    0.75394    0.75411   1.00
H2       0.31883    0.81020    0.62449   1.00
H2       0.40815    0.76743    0.70046   1.00
C6       0.35552    0.78544    0.53235   1.00
C6       0.36336    0.77434    0.79208   1.00
C6       0.33525    0.73873    0.58574   1.00
C6       0.34270    0.73098    0.73607   1.00
C6       0.28687    0.78584    0.55745   1.00
C6       0.40938    0.72414    0.76554   1.00
H2       0.35310    0.81496    0.52058   1.00
H2       0.38690    0.79134    0.80520   1.00
H2       0.38621    0.77978    0.53830   1.00
H2       0.33902    0.79400    0.78654   1.00
H2       0.34640    0.76512    0.50959   1.00
H2       0.35357    0.75303    0.81363   1.00
H2       0.32546    0.71706    0.56455   1.00
H2       0.33238    0.70835    0.75598   1.00
H2       0.36578    0.73261    0.59225   1.00
H2       0.31815    0.75025    0.72994   1.00
H2       0.31837    0.73483    0.61245   1.00
H2       0.35146    0.71700    0.70885   1.00
H2       0.28181    0.81491    0.54542   1.00
H2       0.43433    0.73885    0.77883   1.00
H2       0.27845    0.76459    0.53525   1.00
H2       0.39845    0.70278    0.78649   1.00
H2       0.26745    0.78200    0.58239   1.00
H2       0.41982    0.70820    0.74002   1.00
C4       0.41366    1.14525    0.41960   1.00
C4       0.41221    1.18691    0.42014   1.00
C3       0.44719    1.12397    0.43192   1.00
C3       0.44248    1.21004    0.43680   1.00
C3       0.38060    1.12354    0.40627   1.00
C3       0.37942    1.20670    0.40356   1.00
C2       0.41595    1.06095    0.42034   1.00
C2       0.41021    1.27122    0.41953   1.00
C3       0.44831    1.08311    0.43249   1.00
C3       0.44167    1.25091    0.43637   1.00
C3       0.38284    1.08196    0.40752   1.00
C3       0.37982    1.24836    0.40351   1.00
H1       0.47221    1.13737    0.44058   1.00
H1       0.46607    1.19806    0.45022   1.00
C5       0.34662    1.14335    0.39198   1.00
C5       0.34730    1.18498    0.38782   1.00
H1       0.47331    1.06951    0.44185   1.00
H1       0.46448    1.26591    0.44873   1.00
H1       0.35983    1.06552    0.39853   1.00
H1       0.35716    1.26348    0.39175   1.00
C6       0.31039    1.12015    0.38190   1.00
C6       0.31480    1.20619    0.36668   1.00
H2       0.30531    1.09845    0.40459   1.00
H2       0.32750    1.22810    0.34746   1.00
H2       0.28416    1.13786    0.38400   1.00
H2       0.30001    1.18728    0.34595   1.00
C6       0.31217    1.10106    0.34037   1.00
C6       0.28380    1.22442    0.39494   1.00
H2       0.34089    1.08792    0.33588   1.00
H2       0.29865    1.23883    0.41922   1.00
C6       0.28065    1.06959    0.33022   1.00
C6       0.25394    1.25411    0.37721   1.00
H2       0.31020    1.12449    0.31883   1.00
H2       0.26743    1.20046    0.40815   1.00
C6       0.28544    1.03235    0.35552   1.00
C6       0.27434    1.29208    0.36336   1.00
C6       0.23873    1.08574    0.33525   1.00
C6       0.23098    1.23607    0.34270   1.00
C6       0.28584    1.05745    0.28687   1.00
C6       0.22414    1.26554    0.40938   1.00
H2       0.31496    1.02058    0.35310   1.00
H2       0.29134    1.30520    0.38690   1.00
H2       0.27978    1.03830    0.38621   1.00
H2       0.29400    1.28654    0.33902   1.00
H2       0.26512    1.00959    0.34640   1.00
H2       0.25303    1.31363    0.35357   1.00
H2       0.21706    1.06455    0.32546   1.00
H2       0.20835    1.25598    0.33238   1.00
H2       0.23261    1.09225    0.36578   1.00
H2       0.25025    1.22994    0.31815   1.00
H2       0.23483    1.11245    0.31837   1.00
H2       0.21700    1.20885    0.35146   1.00
H2       0.31491    1.04542    0.28181   1.00
H2       0.23885    1.27883    0.43433   1.00
H2       0.26459    1.03525    0.27845   1.00
H2       0.20278    1.28649    0.39845   1.00
H2       0.28200    1.08239    0.26745   1.00
H2       0.20820    1.24002    0.41982   1.00
C4       0.18475    0.91960    0.41634   1.00
C4       0.14309    0.92014    0.41779   1.00
C3       0.20603    0.93192    0.38281   1.00
C3       0.11996    0.93680    0.38752   1.00
C3       0.20646    0.90627    0.44940   1.00
C3       0.12330    0.90356    0.45058   1.00
C2       0.26905    0.92034    0.41405   1.00
C2       0.05878    0.91953    0.41979   1.00
C3       0.24689    0.93249    0.38169   1.00
C3       0.07909    0.93637    0.38833   1.00
C3       0.24804    0.90752    0.44716   1.00
C3       0.08164    0.90351    0.45018   1.00
H1       0.19263    0.94058    0.35779   1.00
H1       0.13194    0.95022    0.36393   1.00
C5       0.18665    0.89198    0.48338   1.00
C5       0.14502    0.88782    0.48270   1.00
H1       0.26049    0.94185    0.35669   1.00
H1       0.06409    0.94873    0.36552   1.00
H1       0.26448    0.89853    0.47017   1.00
H1       0.06652    0.89175    0.47284   1.00
C6       0.20985    0.88190    0.51961   1.00
C6       0.12381    0.86668    0.51520   1.00
H2       0.23155    0.90459    0.52469   1.00
H2       0.10190    0.84746    0.50250   1.00
H2       0.19214    0.88400    0.54584   1.00
H2       0.14272    0.84595    0.52999   1.00
C6       0.22894    0.84037    0.51783   1.00
C6       0.10558    0.89494    0.54620   1.00
H2       0.24208    0.83588    0.48911   1.00
H2       0.09117    0.91922    0.53135   1.00
C6       0.26041    0.83022    0.54935   1.00
C6       0.07589    0.87721    0.57606   1.00
H2       0.20551    0.81883    0.51980   1.00
H2       0.12954    0.90815    0.56257   1.00
C6       0.29765    0.85552    0.54456   1.00
C6       0.03792    0.86336    0.55566   1.00
C6       0.24426    0.83525    0.59127   1.00
C6       0.09393    0.84270    0.59902   1.00
C6       0.27255    0.78687    0.54416   1.00
C6       0.06446    0.90938    0.60586   1.00
H2       0.30942    0.85310    0.51504   1.00
H2       0.02480    0.88690    0.53866   1.00
H2       0.29170    0.88621    0.55022   1.00
H2       0.04346    0.83902    0.53600   1.00
H2       0.32041    0.84640    0.56488   1.00
H2       0.01637    0.85357    0.57697   1.00
H2       0.26545    0.82546    0.61294   1.00
H2       0.07402    0.83238    0.62165   1.00
H2       0.23775    0.86578    0.59739   1.00
H2       0.10006    0.81815    0.57975   1.00
H2       0.21755    0.81837    0.59517   1.00
H2       0.12115    0.85146    0.61300   1.00
H2       0.28458    0.78181    0.51509   1.00
H2       0.05117    0.93433    0.59115   1.00
H2       0.29475    0.77845    0.56541   1.00
H2       0.04351    0.89845    0.62722   1.00
H2       0.24761    0.76745    0.54800   1.00
H2       0.08998    0.91982    0.62180   1.00
C4       0.64525    0.91960    0.41366   1.00
C4       0.68691    0.92014    0.41221   1.00
C3       0.62397    0.93192    0.44719   1.00
C3       0.71004    0.93680    0.44248   1.00
C3       0.62354    0.90627    0.38060   1.00
C3       0.70670    0.90356    0.37942   1.00
C2       0.56095    0.92034    0.41595   1.00
C2       0.77122    0.91953    0.41021   1.00
C3       0.58311    0.93249    0.44831   1.00
C3       0.75091    0.93637    0.44167   1.00
C3       0.58196    0.90752    0.38284   1.00
C3       0.74836    0.90351    0.37982   1.00
H1       0.63737    0.94058    0.47221   1.00
H1       0.69806    0.95022    0.46607   1.00
C5       0.64335    0.89198    0.34662   1.00
C5       0.68498    0.88782    0.34730   1.00
H1       0.56951    0.94185    0.47331   1.00
H1       0.76591    0.94873    0.46448   1.00
H1       0.56552    0.89853    0.35983   1.00
H1       0.76348    0.89175    0.35716   1.00
C6       0.62015    0.88190    0.31039   1.00
C6       0.70619    0.86668    0.31480   1.00
H2       0.59845    0.90459    0.30531   1.00
H2       0.72810    0.84746    0.32750   1.00
H2       0.63786    0.88400    0.28416   1.00
H2       0.68728    0.84595    0.30001   1.00
C6       0.60106    0.84037    0.31217   1.00
C6       0.72442    0.89494    0.28380   1.00
H2       0.58792    0.83588    0.34089   1.00
H2       0.73883    0.91922    0.29865   1.00
C6       0.56959    0.83022    0.28065   1.00
C6       0.75411    0.87721    0.25394   1.00
H2       0.62449    0.81883    0.31020   1.00
H2       0.70046    0.90815    0.26743   1.00
C6       0.53235    0.85552    0.28544   1.00
C6       0.79208    0.86336    0.27434   1.00
C6       0.58574    0.83525    0.23873   1.00
C6       0.73607    0.84270    0.23098   1.00
C6       0.55745    0.78687    0.28584   1.00
C6       0.76554    0.90938    0.22414   1.00
H2       0.52058    0.85310    0.31496   1.00
H2       0.80520    0.88690    0.29134   1.00
H2       0.53830    0.88621    0.27978   1.00
H2       0.78654    0.83902    0.29400   1.00
H2       0.50959    0.84640    0.26512   1.00
H2       0.81363    0.85357    0.25303   1.00
H2       0.56455    0.82546    0.21706   1.00
H2       0.75598    0.83238    0.20835   1.00
H2       0.59225    0.86578    0.23261   1.00
H2       0.72994    0.81815    0.25025   1.00
H2       0.61245    0.81837    0.23483   1.00
H2       0.70885    0.85146    0.21700   1.00
H2       0.54542    0.78181    0.31491   1.00
H2       0.77883    0.93433    0.23885   1.00
H2       0.53525    0.77845    0.26459   1.00
H2       0.78649    0.89845    0.20278   1.00
H2       0.58239    0.76745    0.28200   1.00
H2       0.74002    0.91982    0.20820   1.00
C4       0.41634    0.68475    0.41960   1.00
C4       0.41779    0.64309    0.42014   1.00
C3       0.38281    0.70603    0.43192   1.00
C3       0.38752    0.61996    0.43680   1.00
C3       0.44940    0.70646    0.40627   1.00
C3       0.45058    0.62330    0.40356   1.00
C2       0.41405    0.76905    0.42034   1.00
C2       0.41979    0.55878    0.41953   1.00
C3       0.38169    0.74689    0.43249   1.00
C3       0.38833    0.57909    0.43637   1.00
C3       0.44716    0.74804    0.40752   1.00
C3       0.45018    0.58164    0.40351   1.00
H1       0.35779    0.69263    0.44058   1.00
H1       0.36393    0.63194    0.45022   1.00
C5       0.48338    0.68665    0.39198   1.00
C5       0.48270    0.64502    0.38782   1.00
H1       0.35669    0.76049    0.44185   1.00
H1       0.36552    0.56409    0.44873   1.00
H1       0.47017    0.76448    0.39853   1.00
H1       0.47284    0.56652    0.39175   1.00
C6       0.51961    0.70985    0.38190   1.00
C6       0.51520    0.62381    0.36668   1.00
H2       0.52469    0.73155    0.40459   1.00
H2       0.50250    0.60190    0.34746   1.00
H2       0.54584    0.69214    0.38400   1.00
H2       0.52999    0.64272    0.34595   1.00
C6       0.51783    0.72894    0.34037   1.00
C6       0.54620    0.60558    0.39494   1.00
H2       0.48911    0.74208    0.33588   1.00
H2       0.53135    0.59117    0.41922   1.00
C6       0.54935    0.76041    0.33022   1.00
C6       0.57606    0.57589    0.37721   1.00
H2       0.51980    0.70551    0.31883   1.00
H2       0.56257    0.62954    0.40815   1.00
C6       0.54456    0.79765    0.35552   1.00
C6       0.55566    0.53792    0.36336   1.00
C6       0.59127    0.74426    0.33525   1.00
C6       0.59902    0.59393    0.34270   1.00
C6       0.54416    0.77255    0.28687   1.00
C6       0.60586    0.56446    0.40938   1.00
H2       0.51504    0.80942    0.35310   1.00
H2       0.53866    0.52480    0.38690   1.00
H2       0.55022    0.79170    0.38621   1.00
H2       0.53600    0.54346    0.33902   1.00
H2       0.56488    0.82041    0.34640   1.00
H2       0.57697    0.51637    0.35357   1.00
H2       0.61294    0.76545    0.32546   1.00
H2       0.62165    0.57402    0.33238   1.00
H2       0.59739    0.73775    0.36578   1.00
H2       0.57975    0.60006    0.31815   1.00
H2       0.59517    0.71755    0.31837   1.00
H2       0.61300    0.62115    0.35146   1.00
H2       0.51509    0.78458    0.28181   1.00
H2       0.59115    0.55117    0.43433   1.00
H2       0.56541    0.79475    0.27845   1.00
H2       0.62722    0.54351    0.39845   1.00
H2       0.54800    0.74761    0.26745   1.00
H2       0.62180    0.58998    0.41982   1.00
C4       0.41960    0.91634    0.18475   1.00
C4       0.42014    0.91779    0.14309   1.00
C3       0.43192    0.88281    0.20603   1.00
C3       0.43680    0.88752    0.11996   1.00
C3       0.40627    0.94940    0.20646   1.00
C3       0.40356    0.95058    0.12330   1.00
C2       0.42034    0.91405    0.26905   1.00
C2       0.41953    0.91979    0.05878   1.00
C3       0.43249    0.88169    0.24689   1.00
C3       0.43637    0.88833    0.07909   1.00
C3       0.40752    0.94716    0.24804   1.00
C3       0.40351    0.95018    0.08164   1.00
H1       0.44058    0.85779    0.19263   1.00
H1       0.45022    0.86393    0.13194   1.00
C5       0.39198    0.98338    0.18665   1.00
C5       0.38782    0.98270    0.14502   1.00
H1       0.44185    0.85669    0.26049   1.00
H1       0.44873    0.86552    0.06409   1.00
H1       0.39853    0.97017    0.26448   1.00
H1       0.39175    0.97284    0.06652   1.00
C6       0.38190    1.01961    0.20985   1.00
C6       0.36668    1.01520    0.12381   1.00
H2       0.40459    1.02469    0.23155   1.00
H2       0.34746    1.00250    0.10190   1.00
H2       0.38400    1.04584    0.19214   1.00
H2       0.34595    1.02999    0.14272   1.00
C6       0.34037    1.01783    0.22894   1.00
C6       0.39494    1.04620    0.10558   1.00
H2       0.33588    0.98911    0.24208   1.00
H2       0.41922    1.03135    0.09117   1.00
C6       0.33022    1.04935    0.26041   1.00
C6       0.37721    1.07606    0.07589   1.00
H2       0.31883    1.01980    0.20551   1.00
H2       0.40815    1.06257    0.12954   1.00
C6       0.35552    1.04456    0.29765   1.00
C6       0.36336    1.05566    0.03792   1.00
C6       0.33525    1.09127    0.24426   1.00
C6       0.34270    1.09902    0.09393   1.00
C6       0.28687    1.04416    0.27255   1.00
C6       0.40938    1.10586    0.06446   1.00
H2       0.35310    1.01504    0.30942   1.00
H2       0.38690    1.03866    0.02480   1.00
H2       0.38621    1.05022    0.29170   1.00
H2       0.33902    1.03600    0.04346   1.00
H2       0.34640    1.06488    0.32041   1.00
H2       0.35357    1.07697    0.01637   1.00
H2       0.32546    1.11294    0.26545   1.00
H2       0.33238    1.12165    0.07402   1.00
H2       0.36578    1.09739    0.23775   1.00
H2       0.31815    1.07975    0.10006   1.00
H2       0.31837    1.09517    0.21755   1.00
H2       0.35146    1.11300    0.12115   1.00
H2       0.28181    1.01509    0.28458   1.00
H2       0.43433    1.09115    0.05117   1.00
H2       0.27845    1.06541    0.29475   1.00
H2       0.39845    1.12722    0.04351   1.00
H2       0.26745    1.04800    0.24761   1.00
H2       0.41982    1.12180    0.08998   1.00
C4       0.91960    0.41366    0.64525   1.00
C4       0.92014    0.41221    0.68691   1.00
C3       0.93192    0.44719    0.62397   1.00
C3       0.93680    0.44248    0.71004   1.00
C3       0.90627    0.38060    0.62354   1.00
C3       0.90356    0.37942    0.70670   1.00
C2       0.92034    0.41595    0.56095   1.00
C2       0.91953    0.41021    0.77122   1.00
C3       0.93249    0.44831    0.58311   1.00
C3       0.93637    0.44167    0.75091   1.00
C3       0.90752    0.38284    0.58196   1.00
C3       0.90351    0.37982    0.74836   1.00
H1       0.94058    0.47221    0.63737   1.00
H1       0.95022    0.46607    0.69806   1.00
C5       0.89198    0.34662    0.64335   1.00
C5       0.88782    0.34730    0.68498   1.00
H1       0.94185    0.47331    0.56951   1.00
H1       0.94873    0.46448    0.76591   1.00
H1       0.89853    0.35983    0.56552   1.00
H1       0.89175    0.35716    0.76348   1.00
C6       0.88190    0.31039    0.62015   1.00
C6       0.86668    0.31480    0.70619   1.00
H2       0.90459    0.30531    0.59845   1.00
H2       0.84746    0.32750    0.72810   1.00
H2       0.88400    0.28416    0.63786   1.00
H2       0.84595    0.30001    0.68728   1.00
C6       0.84037    0.31217    0.60106   1.00
C6       0.89494    0.28380    0.72442   1.00
H2       0.83588    0.34089    0.58792   1.00
H2       0.91922    0.29865    0.73883   1.00
C6       0.83022    0.28065    0.56959   1.00
C6       0.87721    0.25394    0.75411   1.00
H2       0.81883    0.31020    0.62449   1.00
H2       0.90815    0.26743    0.70046   1.00
C6       0.85552    0.28544    0.53235   1.00
C6       0.86336    0.27434    0.79208   1.00
C6       0.83525    0.23873    0.58574   1.00
C6       0.84270    0.23098    0.73607   1.00
C6       0.78687    0.28584    0.55745   1.00
C6       0.90938    0.22414    0.76554   1.00
H2       0.85310    0.31496    0.52058   1.00
H2       0.88690    0.29134    0.80520   1.00
H2       0.88621    0.27978    0.53830   1.00
H2       0.83902    0.29400    0.78654   1.00
H2       0.84640    0.26512    0.50959   1.00
H2       0.85357    0.25303    0.81363   1.00
H2       0.82546    0.21706    0.56455   1.00
H2       0.83238    0.20835    0.75598   1.00
H2       0.86578    0.23261    0.59225   1.00
H2       0.81815    0.25025    0.72994   1.00
H2       0.81837    0.23483    0.61245   1.00
H2       0.85146    0.21700    0.70885   1.00
H2       0.78181    0.31491    0.54542   1.00
H2       0.93433    0.23885    0.77883   1.00
H2       0.77845    0.26459    0.53525   1.00
H2       0.89845    0.20278    0.78649   1.00
H2       0.76745    0.28200    0.58239   1.00
H2       0.91982    0.20820    0.74002   1.00
C4       0.91366    0.64525    0.41960   1.00
C4       0.91221    0.68691    0.42014   1.00
C3       0.94719    0.62397    0.43192   1.00
C3       0.94248    0.71004    0.43680   1.00
C3       0.88060    0.62354    0.40627   1.00
C3       0.87942    0.70670    0.40356   1.00
C2       0.91595    0.56095    0.42034   1.00
C2       0.91021    0.77122    0.41953   1.00
C3       0.94831    0.58311    0.43249   1.00
C3       0.94167    0.75091    0.43637   1.00
C3       0.88284    0.58196    0.40752   1.00
C3       0.87982    0.74836    0.40351   1.00
H1       0.97221    0.63737    0.44058   1.00
H1       0.96607    0.69806    0.45022   1.00
C5       0.84662    0.64335    0.39198   1.00
C5       0.84730    0.68498    0.38782   1.00
H1       0.97331    0.56951    0.44185   1.00
H1       0.96448    0.76591    0.44873   1.00
H1       0.85983    0.56552    0.39853   1.00
H1       0.85716    0.76348    0.39175   1.00
C6       0.81039    0.62015    0.38190   1.00
C6       0.81480    0.70619    0.36668   1.00
H2       0.80531    0.59845    0.40459   1.00
H2       0.82750    0.72810    0.34746   1.00
H2       0.78416    0.63786    0.38400   1.00
H2       0.80001    0.68728    0.34595   1.00
C6       0.81217    0.60106    0.34037   1.00
C6       0.78380    0.72442    0.39494   1.00
H2       0.84089    0.58792    0.33588   1.00
H2       0.79865    0.73883    0.41922   1.00
C6       0.78065    0.56959    0.33022   1.00
C6       0.75394    0.75411    0.37721   1.00
H2       0.81020    0.62449    0.31883   1.00
H2       0.76743    0.70046    0.40815   1.00
C6       0.78544    0.53235    0.35552   1.00
C6       0.77434    0.79208    0.36336   1.00
C6       0.73873    0.58574    0.33525   1.00
C6       0.73098    0.73607    0.34270   1.00
C6       0.78584    0.55745    0.28687   1.00
C6       0.72414    0.76554    0.40938   1.00
H2       0.81496    0.52058    0.35310   1.00
H2       0.79134    0.80520    0.38690   1.00
H2       0.77978    0.53830    0.38621   1.00
H2       0.79400    0.78654    0.33902   1.00
H2       0.76512    0.50959    0.34640   1.00
H2       0.75303    0.81363    0.35357   1.00
H2       0.71706    0.56455    0.32546   1.00
H2       0.70835    0.75598    0.33238   1.00
H2       0.73261    0.59225    0.36578   1.00
H2       0.75025    0.72994    0.31815   1.00
H2       0.73483    0.61245    0.31837   1.00
H2       0.71700    0.70885    0.35146   1.00
H2       0.81491    0.54542    0.28181   1.00
H2       0.73885    0.77883    0.43433   1.00
H2       0.76459    0.53525    0.27845   1.00
H2       0.70278    0.78649    0.39845   1.00
H2       0.78200    0.58239    0.26745   1.00
H2       0.70820    0.74002    0.41982   1.00
C4       0.68475    0.41960    0.41634   1.00
C4       0.64309    0.42014    0.41779   1.00
C3       0.70603    0.43192    0.38281   1.00
C3       0.61996    0.43680    0.38752   1.00
C3       0.70646    0.40627    0.44940   1.00
C3       0.62330    0.40356    0.45058   1.00
C2       0.76905    0.42034    0.41405   1.00
C2       0.55878    0.41953    0.41979   1.00
C3       0.74689    0.43249    0.38169   1.00
C3       0.57909    0.43637    0.38833   1.00
C3       0.74804    0.40752    0.44716   1.00
C3       0.58164    0.40351    0.45018   1.00
H1       0.69263    0.44058    0.35779   1.00
H1       0.63194    0.45022    0.36393   1.00
C5       0.68665    0.39198    0.48338   1.00
C5       0.64502    0.38782    0.48270   1.00
H1       0.76049    0.44185    0.35669   1.00
H1       0.56409    0.44873    0.36552   1.00
H1       0.76448    0.39853    0.47017   1.00
H1       0.56652    0.39175    0.47284   1.00
C6       0.70985    0.38190    0.51961   1.00
C6       0.62381    0.36668    0.51520   1.00
H2       0.73155    0.40459    0.52469   1.00
H2       0.60190    0.34746    0.50250   1.00
H2       0.69214    0.38400    0.54584   1.00
H2       0.64272    0.34595    0.52999   1.00
C6       0.72894    0.34037    0.51783   1.00
C6       0.60558    0.39494    0.54620   1.00
H2       0.74208    0.33588    0.48911   1.00
H2       0.59117    0.41922    0.53135   1.00
C6       0.76041    0.33022    0.54935   1.00
C6       0.57589    0.37721    0.57606   1.00
H2       0.70551    0.31883    0.51980   1.00
H2       0.62954    0.40815    0.56257   1.00
C6       0.79765    0.35552    0.54456   1.00
C6       0.53792    0.36336    0.55566   1.00
C6       0.74426    0.33525    0.59127   1.00
C6       0.59393    0.34270    0.59902   1.00
C6       0.77255    0.28687    0.54416   1.00
C6       0.56446    0.40938    0.60586   1.00
H2       0.80942    0.35310    0.51504   1.00
H2       0.52480    0.38690    0.53866   1.00
H2       0.79170    0.38621    0.55022   1.00
H2       0.54346    0.33902    0.53600   1.00
H2       0.82041    0.34640    0.56488   1.00
H2       0.51637    0.35357    0.57697   1.00
H2       0.76545    0.32546    0.61294   1.00
H2       0.57402    0.33238    0.62165   1.00
H2       0.73775    0.36578    0.59739   1.00
H2       0.60006    0.31815    0.57975   1.00
H2       0.71755    0.31837    0.59517   1.00
H2       0.62115    0.35146    0.61300   1.00
H2       0.78458    0.28181    0.51509   1.00
H2       0.55117    0.43433    0.59115   1.00
H2       0.79475    0.27845    0.56541   1.00
H2       0.54351    0.39845    0.62722   1.00
H2       0.74761    0.26745    0.54800   1.00
H2       0.58998    0.41982    0.62180   1.00
C4       1.14525    0.41960    0.41366   1.00
C4       1.18691    0.42014    0.41221   1.00
C3       1.12397    0.43192    0.44719   1.00
C3       1.21004    0.43680    0.44248   1.00
C3       1.12354    0.40627    0.38060   1.00
C3       1.20670    0.40356    0.37942   1.00
C2       1.06095    0.42034    0.41595   1.00
C2       1.27122    0.41953    0.41021   1.00
C3       1.08311    0.43249    0.44831   1.00
C3       1.25091    0.43637    0.44167   1.00
C3       1.08196    0.40752    0.38284   1.00
C3       1.24836    0.40351    0.37982   1.00
H1       1.13737    0.44058    0.47221   1.00
H1       1.19806    0.45022    0.46607   1.00
C5       1.14335    0.39198    0.34662   1.00
C5       1.18498    0.38782    0.34730   1.00
H1       1.06951    0.44185    0.47331   1.00
H1       1.26591    0.44873    0.46448   1.00
H1       1.06552    0.39853    0.35983   1.00
H1       1.26348    0.39175    0.35716   1.00
C6       1.12015    0.38190    0.31039   1.00
C6       1.20619    0.36668    0.31480   1.00
H2       1.09845    0.40459    0.30531   1.00
H2       1.22810    0.34746    0.32750   1.00
H2       1.13786    0.38400    0.28416   1.00
H2       1.18728    0.34595    0.30001   1.00
C6       1.10106    0.34037    0.31217   1.00
C6       1.22442    0.39494    0.28380   1.00
H2       1.08792    0.33588    0.34089   1.00
H2       1.23883    0.41922    0.29865   1.00
C6       1.06959    0.33022    0.28065   1.00
C6       1.25411    0.37721    0.25394   1.00
H2       1.12449    0.31883    0.31020   1.00
H2       1.20046    0.40815    0.26743   1.00
C6       1.03235    0.35552    0.28544   1.00
C6       1.29208    0.36336    0.27434   1.00
C6       1.08574    0.33525    0.23873   1.00
C6       1.23607    0.34270    0.23098   1.00
C6       1.05745    0.28687    0.28584   1.00
C6       1.26554    0.40938    0.22414   1.00
H2       1.02058    0.35310    0.31496   1.00
H2       1.30520    0.38690    0.29134   1.00
H2       1.03830    0.38621    0.27978   1.00
H2       1.28654    0.33902    0.29400   1.00
H2       1.00959    0.34640    0.26512   1.00
H2       1.31363    0.35357    0.25303   1.00
H2       1.06455    0.32546    0.21706   1.00
H2       1.25598    0.33238    0.20835   1.00
H2       1.09225    0.36578    0.23261   1.00
H2       1.22994    0.31815    0.25025   1.00
H2       1.11245    0.31837    0.23483   1.00
H2       1.20885    0.35146    0.21700   1.00
H2       1.04542    0.28181    0.31491   1.00
H2       1.27883    0.43433    0.23885   1.00
H2       1.03525    0.27845    0.26459   1.00
H2       1.28649    0.39845    0.20278   1.00
H2       1.08239    0.26745    0.28200   1.00
H2       1.24002    0.41982    0.20820   1.00
C4       0.91634    0.18475    0.41960   1.00
C4       0.91779    0.14309    0.42014   1.00
C3       0.88281    0.20603    0.43192   1.00
C3       0.88752    0.11996    0.43680   1.00
C3       0.94940    0.20646    0.40627   1.00
C3       0.95058    0.12330    0.40356   1.00
C2       0.91405    0.26905    0.42034   1.00
C2       0.91979    0.05878    0.41953   1.00
C3       0.88169    0.24689    0.43249   1.00
C3       0.88833    0.07909    0.43637   1.00
C3       0.94716    0.24804    0.40752   1.00
C3       0.95018    0.08164    0.40351   1.00
H1       0.85779    0.19263    0.44058   1.00
H1       0.86393    0.13194    0.45022   1.00
C5       0.98338    0.18665    0.39198   1.00
C5       0.98270    0.14502    0.38782   1.00
H1       0.85669    0.26049    0.44185   1.00
H1       0.86552    0.06409    0.44873   1.00
H1       0.97017    0.26448    0.39853   1.00
H1       0.97284    0.06652    0.39175   1.00
C6       1.01961    0.20985    0.38190   1.00
C6       1.01520    0.12381    0.36668   1.00
H2       1.02469    0.23155    0.40459   1.00
H2       1.00250    0.10190    0.34746   1.00
H2       1.04584    0.19214    0.38400   1.00
H2       1.02999    0.14272    0.34595   1.00
C6       1.01783    0.22894    0.34037   1.00
C6       1.04620    0.10558    0.39494   1.00
H2       0.98911    0.24208    0.33588   1.00
H2       1.03135    0.09117    0.41922   1.00
C6       1.04935    0.26041    0.33022   1.00
C6       1.07606    0.07589    0.37721   1.00
H2       1.01980    0.20551    0.31883   1.00
H2       1.06257    0.12954    0.40815   1.00
C6       1.04456    0.29765    0.35552   1.00
C6       1.05566    0.03792    0.36336   1.00
C6       1.09127    0.24426    0.33525   1.00
C6       1.09902    0.09393    0.34270   1.00
C6       1.04416    0.27255    0.28687   1.00
C6       1.10586    0.06446    0.40938   1.00
H2       1.01504    0.30942    0.35310   1.00
H2       1.03866    0.02480    0.38690   1.00
H2       1.05022    0.29170    0.38621   1.00
H2       1.03600    0.04346    0.33902   1.00
H2       1.06488    0.32041    0.34640   1.00
H2       1.07697    0.01637    0.35357   1.00
H2       1.11294    0.26545    0.32546   1.00
H2       1.12165    0.07402    0.33238   1.00
H2       1.09739    0.23775    0.36578   1.00
H2       1.07975    0.10006    0.31815   1.00
H2       1.09517    0.21755    0.31837   1.00
H2       1.11300    0.12115    0.35146   1.00
H2       1.01509    0.28458    0.28181   1.00
H2       1.09115    0.05117    0.43433   1.00
H2       1.06541    0.29475    0.27845   1.00
H2       1.12722    0.04351    0.39845   1.00
H2       1.04800    0.24761    0.26745   1.00
H2       1.12180    0.08998    0.41982   1.00
C4       0.91960    0.41634    0.18475   1.00
C4       0.92014    0.41779    0.14309   1.00
C3       0.93192    0.38281    0.20603   1.00
C3       0.93680    0.38752    0.11996   1.00
C3       0.90627    0.44940    0.20646   1.00
C3       0.90356    0.45058    0.12330   1.00
C2       0.92034    0.41405    0.26905   1.00
C2       0.91953    0.41979    0.05878   1.00
C3       0.93249    0.38169    0.24689   1.00
C3       0.93637    0.38833    0.07909   1.00
C3       0.90752    0.44716    0.24804   1.00
C3       0.90351    0.45018    0.08164   1.00
H1       0.94058    0.35779    0.19263   1.00
H1       0.95022    0.36393    0.13194   1.00
C5       0.89198    0.48338    0.18665   1.00
C5       0.88782    0.48270    0.14502   1.00
H1       0.94185    0.35669    0.26049   1.00
H1       0.94873    0.36552    0.06409   1.00
H1       0.89853    0.47017    0.26448   1.00
H1       0.89175    0.47284    0.06652   1.00
C6       0.88190    0.51961    0.20985   1.00
C6       0.86668    0.51520    0.12381   1.00
H2       0.90459    0.52469    0.23155   1.00
H2       0.84746    0.50250    0.10190   1.00
H2       0.88400    0.54584    0.19214   1.00
H2       0.84595    0.52999    0.14272   1.00
C6       0.84037    0.51783    0.22894   1.00
C6       0.89494    0.54620    0.10558   1.00
H2       0.83588    0.48911    0.24208   1.00
H2       0.91922    0.53135    0.09117   1.00
C6       0.83022    0.54935    0.26041   1.00
C6       0.87721    0.57606    0.07589   1.00
H2       0.81883    0.51980    0.20551   1.00
H2       0.90815    0.56257    0.12954   1.00
C6       0.85552    0.54456    0.29765   1.00
C6       0.86336    0.55566    0.03792   1.00
C6       0.83525    0.59127    0.24426   1.00
C6       0.84270    0.59902    0.09393   1.00
C6       0.78687    0.54416    0.27255   1.00
C6       0.90938    0.60586    0.06446   1.00
H2       0.85310    0.51504    0.30942   1.00
H2       0.88690    0.53866    0.02480   1.00
H2       0.88621    0.55022    0.29170   1.00
H2       0.83902    0.53600    0.04346   1.00
H2       0.84640    0.56488    0.32041   1.00
H2       0.85357    0.57697    0.01637   1.00
H2       0.82546    0.61294    0.26545   1.00
H2       0.83238    0.62165    0.07402   1.00
H2       0.86578    0.59739    0.23775   1.00
H2       0.81815    0.57975    0.10006   1.00
H2       0.81837    0.59517    0.21755   1.00
H2       0.85146    0.61300    0.12115   1.00
H2       0.78181    0.51509    0.28458   1.00
H2       0.93433    0.59115    0.05117   1.00
H2       0.77845    0.56541    0.29475   1.00
H2       0.89845    0.62722    0.04351   1.00
H2       0.76745    0.54800    0.24761   1.00
H2       0.91982    0.62180    0.08998   1.00
