data_IRMOF10_SG202_interpen_Ligand9cp_label_o.

_audit_creation_method             'generated by an auxiliary program of Tobunporous'

_symmetry_space_group_name_H-M     'P 1'
_symmetry_Int_Tables_number        1
_symmetry_cell_setting             triclinic

_cell_length_a                    34.2800
_cell_length_b                    34.2800
_cell_length_c                    34.2800
_cell_angle_alpha                 90.0000
_cell_angle_beta                  90.0000
_cell_angle_gamma                 90.0000

loop_
_atom_site_label
_atom_site_fract_x
_atom_site_fract_y
_atom_site_fract_z
_atom_site_occupancy
O1       0.75000    0.75000    0.75000   1.00
Zn1      0.71720    0.78280    0.78280   1.00
Zn1      0.78280    0.71720    0.78280   1.00
Zn1      0.78280    0.78280    0.71720   1.00
Zn1      0.71720    0.71720    0.71720   1.00
O2       0.72650    0.77350    0.83820   1.00
O2       0.72650    0.83820    0.77350   1.00
O2       0.66180    0.77350    0.77350   1.00
O2       0.77350    0.72650    0.83820   1.00
O2       0.83820    0.72650    0.77350   1.00
O2       0.77350    0.66180    0.77350   1.00
O2       0.77350    0.83820    0.72650   1.00
O2       0.83820    0.77350    0.72650   1.00
O2       0.77350    0.77350    0.66180   1.00
O2       0.66180    0.72650    0.72650   1.00
O2       0.72650    0.66180    0.72650   1.00
O2       0.72650    0.72650    0.66180   1.00
C1       0.75000    0.75000    0.85520   1.00
C1       0.75000    0.85520    0.75000   1.00
C1       0.64480    0.75000    0.75000   1.00
C1       0.85520    0.75000    0.75000   1.00
C1       0.75000    0.64480    0.75000   1.00
C1       0.75000    0.75000    0.64480   1.00
O1       0.25000    0.25000    0.75000   1.00
Zn1      0.21720    0.28280    0.78280   1.00
Zn1      0.28280    0.21720    0.78280   1.00
Zn1      0.28280    0.28280    0.71720   1.00
Zn1      0.21720    0.21720    0.71720   1.00
O2       0.22650    0.27350    0.83820   1.00
O2       0.22650    0.33820    0.77350   1.00
O2       0.16180    0.27350    0.77350   1.00
O2       0.27350    0.22650    0.83820   1.00
O2       0.33820    0.22650    0.77350   1.00
O2       0.27350    0.16180    0.77350   1.00
O2       0.27350    0.33820    0.72650   1.00
O2       0.33820    0.27350    0.72650   1.00
O2       0.27350    0.27350    0.66180   1.00
O2       0.16180    0.22650    0.72650   1.00
O2       0.22650    0.16180    0.72650   1.00
O2       0.22650    0.22650    0.66180   1.00
C1       0.25000    0.25000    0.85520   1.00
C1       0.25000    0.35520    0.75000   1.00
C1       0.14480    0.25000    0.75000   1.00
C1       0.35520    0.25000    0.75000   1.00
C1       0.25000    0.14480    0.75000   1.00
C1       0.25000    0.25000    0.64480   1.00
O1       0.25000    0.75000    0.25000   1.00
Zn1      0.21720    0.78280    0.28280   1.00
Zn1      0.28280    0.71720    0.28280   1.00
Zn1      0.28280    0.78280    0.21720   1.00
Zn1      0.21720    0.71720    0.21720   1.00
O2       0.22650    0.77350    0.33820   1.00
O2       0.22650    0.83820    0.27350   1.00
O2       0.16180    0.77350    0.27350   1.00
O2       0.27350    0.72650    0.33820   1.00
O2       0.33820    0.72650    0.27350   1.00
O2       0.27350    0.66180    0.27350   1.00
O2       0.27350    0.83820    0.22650   1.00
O2       0.33820    0.77350    0.22650   1.00
O2       0.27350    0.77350    0.16180   1.00
O2       0.16180    0.72650    0.22650   1.00
O2       0.22650    0.66180    0.22650   1.00
O2       0.22650    0.72650    0.16180   1.00
C1       0.25000    0.75000    0.35520   1.00
C1       0.25000    0.85520    0.25000   1.00
C1       0.14480    0.75000    0.25000   1.00
C1       0.35520    0.75000    0.25000   1.00
C1       0.25000    0.64480    0.25000   1.00
C1       0.25000    0.75000    0.14480   1.00
O1       0.75000    0.25000    0.25000   1.00
Zn1      0.71720    0.28280    0.28280   1.00
Zn1      0.78280    0.21720    0.28280   1.00
Zn1      0.78280    0.28280    0.21720   1.00
Zn1      0.71720    0.21720    0.21720   1.00
O2       0.72650    0.27350    0.33820   1.00
O2       0.72650    0.33820    0.27350   1.00
O2       0.66180    0.27350    0.27350   1.00
O2       0.77350    0.22650    0.33820   1.00
O2       0.83820    0.22650    0.27350   1.00
O2       0.77350    0.16180    0.27350   1.00
O2       0.77350    0.33820    0.22650   1.00
O2       0.83820    0.27350    0.22650   1.00
O2       0.77350    0.27350    0.16180   1.00
O2       0.66180    0.22650    0.22650   1.00
O2       0.72650    0.16180    0.22650   1.00
O2       0.72650    0.22650    0.16180   1.00
C1       0.75000    0.25000    0.35520   1.00
C1       0.75000    0.35520    0.25000   1.00
C1       0.64480    0.25000    0.25000   1.00
C1       0.85520    0.25000    0.25000   1.00
C1       0.75000    0.14480    0.25000   1.00
C1       0.75000    0.25000    0.14480   1.00
O1       0.25000    0.25000    0.25000   1.00
Zn1      0.28280    0.21720    0.21720   1.00
Zn1      0.21720    0.28280    0.21720   1.00
Zn1      0.21720    0.21720    0.28280   1.00
Zn1      0.28280    0.28280    0.28280   1.00
O2       0.27350    0.22650    0.16180   1.00
O2       0.27350    0.16180    0.22650   1.00
O2       0.33820    0.22650    0.22650   1.00
O2       0.22650    0.27350    0.16180   1.00
O2       0.16180    0.27350    0.22650   1.00
O2       0.22650    0.33820    0.22650   1.00
O2       0.22650    0.16180    0.27350   1.00
O2       0.16180    0.22650    0.27350   1.00
O2       0.22650    0.22650    0.33820   1.00
O2       0.33820    0.27350    0.27350   1.00
O2       0.27350    0.33820    0.27350   1.00
O2       0.27350    0.27350    0.33820   1.00
C1       0.25000    0.25000    0.14480   1.00
C1       0.25000    0.14480    0.25000   1.00
C1       0.35520    0.25000    0.25000   1.00
C1       0.14480    0.25000    0.25000   1.00
C1       0.25000    0.35520    0.25000   1.00
C1       0.25000    0.25000    0.35520   1.00
O1       0.75000    0.75000    0.25000   1.00
Zn1      0.78280    0.71720    0.21720   1.00
Zn1      0.71720    0.78280    0.21720   1.00
Zn1      0.71720    0.71720    0.28280   1.00
Zn1      0.78280    0.78280    0.28280   1.00
O2       0.77350    0.72650    0.16180   1.00
O2       0.77350    0.66180    0.22650   1.00
O2       0.83820    0.72650    0.22650   1.00
O2       0.72650    0.77350    0.16180   1.00
O2       0.66180    0.77350    0.22650   1.00
O2       0.72650    0.83820    0.22650   1.00
O2       0.72650    0.66180    0.27350   1.00
O2       0.66180    0.72650    0.27350   1.00
O2       0.72650    0.72650    0.33820   1.00
O2       0.83820    0.77350    0.27350   1.00
O2       0.77350    0.83820    0.27350   1.00
O2       0.77350    0.77350    0.33820   1.00
C1       0.75000    0.75000    0.14480   1.00
C1       0.75000    0.64480    0.25000   1.00
C1       0.85520    0.75000    0.25000   1.00
C1       0.64480    0.75000    0.25000   1.00
C1       0.75000    0.85520    0.25000   1.00
C1       0.75000    0.75000    0.35520   1.00
O1       0.75000    0.25000    0.75000   1.00
Zn1      0.78280    0.21720    0.71720   1.00
Zn1      0.71720    0.28280    0.71720   1.00
Zn1      0.71720    0.21720    0.78280   1.00
Zn1      0.78280    0.28280    0.78280   1.00
O2       0.77350    0.22650    0.66180   1.00
O2       0.77350    0.16180    0.72650   1.00
O2       0.83820    0.22650    0.72650   1.00
O2       0.72650    0.27350    0.66180   1.00
O2       0.66180    0.27350    0.72650   1.00
O2       0.72650    0.33820    0.72650   1.00
O2       0.72650    0.16180    0.77350   1.00
O2       0.66180    0.22650    0.77350   1.00
O2       0.72650    0.22650    0.83820   1.00
O2       0.83820    0.27350    0.77350   1.00
O2       0.77350    0.33820    0.77350   1.00
O2       0.77350    0.27350    0.83820   1.00
C1       0.75000    0.25000    0.64480   1.00
C1       0.75000    0.14480    0.75000   1.00
C1       0.85520    0.25000    0.75000   1.00
C1       0.64480    0.25000    0.75000   1.00
C1       0.75000    0.35520    0.75000   1.00
C1       0.75000    0.25000    0.85520   1.00
O1       0.25000    0.75000    0.75000   1.00
Zn1      0.28280    0.71720    0.71720   1.00
Zn1      0.21720    0.78280    0.71720   1.00
Zn1      0.21720    0.71720    0.78280   1.00
Zn1      0.28280    0.78280    0.78280   1.00
O2       0.27350    0.72650    0.66180   1.00
O2       0.27350    0.66180    0.72650   1.00
O2       0.33820    0.72650    0.72650   1.00
O2       0.22650    0.77350    0.66180   1.00
O2       0.16180    0.77350    0.72650   1.00
O2       0.22650    0.83820    0.72650   1.00
O2       0.22650    0.66180    0.77350   1.00
O2       0.16180    0.72650    0.77350   1.00
O2       0.22650    0.72650    0.83820   1.00
O2       0.33820    0.77350    0.77350   1.00
O2       0.27350    0.83820    0.77350   1.00
O2       0.27350    0.77350    0.83820   1.00
C1       0.25000    0.75000    0.64480   1.00
C1       0.25000    0.64480    0.75000   1.00
C1       0.35520    0.75000    0.75000   1.00
C1       0.14480    0.75000    0.75000   1.00
C1       0.25000    0.85520    0.75000   1.00
C1       0.25000    0.75000    0.85520   1.00
O1       0.91500    0.91500    0.91500   1.00
Zn1      0.88220    0.94780    0.94780   1.00
Zn1      0.94780    0.88220    0.94780   1.00
Zn1      0.94780    0.94780    0.88220   1.00
Zn1      0.88220    0.88220    0.88220   1.00
O2       0.89150    0.93850    1.00320   1.00
O2       0.89150    1.00320    0.93850   1.00
O2       0.82680    0.93850    0.93850   1.00
O2       0.93850    0.89150    1.00320   1.00
O2       1.00320    0.89150    0.93850   1.00
O2       0.93850    0.82680    0.93850   1.00
O2       0.93850    1.00320    0.89150   1.00
O2       1.00320    0.93850    0.89150   1.00
O2       0.93850    0.93850    0.82680   1.00
O2       0.82680    0.89150    0.89150   1.00
O2       0.89150    0.82680    0.89150   1.00
O2       0.89150    0.89150    0.82680   1.00
C1       0.91500    0.91500    1.02020   1.00
C1       0.91500    1.02020    0.91500   1.00
C1       0.80980    0.91500    0.91500   1.00
C1       1.02020    0.91500    0.91500   1.00
C1       0.91500    0.80980    0.91500   1.00
C1       0.91500    0.91500    0.80980   1.00
O1       0.41500    0.41500    0.91500   1.00
Zn1      0.38220    0.44780    0.94780   1.00
Zn1      0.44780    0.38220    0.94780   1.00
Zn1      0.44780    0.44780    0.88220   1.00
Zn1      0.38220    0.38220    0.88220   1.00
O2       0.39150    0.43850    1.00320   1.00
O2       0.39150    0.50320    0.93850   1.00
O2       0.32680    0.43850    0.93850   1.00
O2       0.43850    0.39150    1.00320   1.00
O2       0.50320    0.39150    0.93850   1.00
O2       0.43850    0.32680    0.93850   1.00
O2       0.43850    0.50320    0.89150   1.00
O2       0.50320    0.43850    0.89150   1.00
O2       0.43850    0.43850    0.82680   1.00
O2       0.32680    0.39150    0.89150   1.00
O2       0.39150    0.32680    0.89150   1.00
O2       0.39150    0.39150    0.82680   1.00
C1       0.41500    0.41500    1.02020   1.00
C1       0.41500    0.52020    0.91500   1.00
C1       0.30980    0.41500    0.91500   1.00
C1       0.52020    0.41500    0.91500   1.00
C1       0.41500    0.30980    0.91500   1.00
C1       0.41500    0.41500    0.80980   1.00
O1       0.41500    0.91500    0.41500   1.00
Zn1      0.38220    0.94780    0.44780   1.00
Zn1      0.44780    0.88220    0.44780   1.00
Zn1      0.44780    0.94780    0.38220   1.00
Zn1      0.38220    0.88220    0.38220   1.00
O2       0.39150    0.93850    0.50320   1.00
O2       0.39150    1.00320    0.43850   1.00
O2       0.32680    0.93850    0.43850   1.00
O2       0.43850    0.89150    0.50320   1.00
O2       0.50320    0.89150    0.43850   1.00
O2       0.43850    0.82680    0.43850   1.00
O2       0.43850    1.00320    0.39150   1.00
O2       0.50320    0.93850    0.39150   1.00
O2       0.43850    0.93850    0.32680   1.00
O2       0.32680    0.89150    0.39150   1.00
O2       0.39150    0.82680    0.39150   1.00
O2       0.39150    0.89150    0.32680   1.00
C1       0.41500    0.91500    0.52020   1.00
C1       0.41500    1.02020    0.41500   1.00
C1       0.30980    0.91500    0.41500   1.00
C1       0.52020    0.91500    0.41500   1.00
C1       0.41500    0.80980    0.41500   1.00
C1       0.41500    0.91500    0.30980   1.00
O1       0.91500    0.41500    0.41500   1.00
Zn1      0.88220    0.44780    0.44780   1.00
Zn1      0.94780    0.38220    0.44780   1.00
Zn1      0.94780    0.44780    0.38220   1.00
Zn1      0.88220    0.38220    0.38220   1.00
O2       0.89150    0.43850    0.50320   1.00
O2       0.89150    0.50320    0.43850   1.00
O2       0.82680    0.43850    0.43850   1.00
O2       0.93850    0.39150    0.50320   1.00
O2       1.00320    0.39150    0.43850   1.00
O2       0.93850    0.32680    0.43850   1.00
O2       0.93850    0.50320    0.39150   1.00
O2       1.00320    0.43850    0.39150   1.00
O2       0.93850    0.43850    0.32680   1.00
O2       0.82680    0.39150    0.39150   1.00
O2       0.89150    0.32680    0.39150   1.00
O2       0.89150    0.39150    0.32680   1.00
C1       0.91500    0.41500    0.52020   1.00
C1       0.91500    0.52020    0.41500   1.00
C1       0.80980    0.41500    0.41500   1.00
C1       1.02020    0.41500    0.41500   1.00
C1       0.91500    0.30980    0.41500   1.00
C1       0.91500    0.41500    0.30980   1.00
O1       0.41500    0.41500    0.41500   1.00
Zn1      0.44780    0.38220    0.38220   1.00
Zn1      0.38220    0.44780    0.38220   1.00
Zn1      0.38220    0.38220    0.44780   1.00
Zn1      0.44780    0.44780    0.44780   1.00
O2       0.43850    0.39150    0.32680   1.00
O2       0.43850    0.32680    0.39150   1.00
O2       0.50320    0.39150    0.39150   1.00
O2       0.39150    0.43850    0.32680   1.00
O2       0.32680    0.43850    0.39150   1.00
O2       0.39150    0.50320    0.39150   1.00
O2       0.39150    0.32680    0.43850   1.00
O2       0.32680    0.39150    0.43850   1.00
O2       0.39150    0.39150    0.50320   1.00
O2       0.50320    0.43850    0.43850   1.00
O2       0.43850    0.50320    0.43850   1.00
O2       0.43850    0.43850    0.50320   1.00
C1       0.41500    0.41500    0.30980   1.00
C1       0.41500    0.30980    0.41500   1.00
C1       0.52020    0.41500    0.41500   1.00
C1       0.30980    0.41500    0.41500   1.00
C1       0.41500    0.52020    0.41500   1.00
C1       0.41500    0.41500    0.52020   1.00
O1       0.91500    0.91500    0.41500   1.00
Zn1      0.94780    0.88220    0.38220   1.00
Zn1      0.88220    0.94780    0.38220   1.00
Zn1      0.88220    0.88220    0.44780   1.00
Zn1      0.94780    0.94780    0.44780   1.00
O2       0.93850    0.89150    0.32680   1.00
O2       0.93850    0.82680    0.39150   1.00
O2       1.00320    0.89150    0.39150   1.00
O2       0.89150    0.93850    0.32680   1.00
O2       0.82680    0.93850    0.39150   1.00
O2       0.89150    1.00320    0.39150   1.00
O2       0.89150    0.82680    0.43850   1.00
O2       0.82680    0.89150    0.43850   1.00
O2       0.89150    0.89150    0.50320   1.00
O2       1.00320    0.93850    0.43850   1.00
O2       0.93850    1.00320    0.43850   1.00
O2       0.93850    0.93850    0.50320   1.00
C1       0.91500    0.91500    0.30980   1.00
C1       0.91500    0.80980    0.41500   1.00
C1       1.02020    0.91500    0.41500   1.00
C1       0.80980    0.91500    0.41500   1.00
C1       0.91500    1.02020    0.41500   1.00
C1       0.91500    0.91500    0.52020   1.00
O1       0.91500    0.41500    0.91500   1.00
Zn1      0.94780    0.38220    0.88220   1.00
Zn1      0.88220    0.44780    0.88220   1.00
Zn1      0.88220    0.38220    0.94780   1.00
Zn1      0.94780    0.44780    0.94780   1.00
O2       0.93850    0.39150    0.82680   1.00
O2       0.93850    0.32680    0.89150   1.00
O2       1.00320    0.39150    0.89150   1.00
O2       0.89150    0.43850    0.82680   1.00
O2       0.82680    0.43850    0.89150   1.00
O2       0.89150    0.50320    0.89150   1.00
O2       0.89150    0.32680    0.93850   1.00
O2       0.82680    0.39150    0.93850   1.00
O2       0.89150    0.39150    1.00320   1.00
O2       1.00320    0.43850    0.93850   1.00
O2       0.93850    0.50320    0.93850   1.00
O2       0.93850    0.43850    1.00320   1.00
C1       0.91500    0.41500    0.80980   1.00
C1       0.91500    0.30980    0.91500   1.00
C1       1.02020    0.41500    0.91500   1.00
C1       0.80980    0.41500    0.91500   1.00
C1       0.91500    0.52020    0.91500   1.00
C1       0.91500    0.41500    1.02020   1.00
O1       0.41500    0.91500    0.91500   1.00
Zn1      0.44780    0.88220    0.88220   1.00
Zn1      0.38220    0.94780    0.88220   1.00
Zn1      0.38220    0.88220    0.94780   1.00
Zn1      0.44780    0.94780    0.94780   1.00
O2       0.43850    0.89150    0.82680   1.00
O2       0.43850    0.82680    0.89150   1.00
O2       0.50320    0.89150    0.89150   1.00
O2       0.39150    0.93850    0.82680   1.00
O2       0.32680    0.93850    0.89150   1.00
O2       0.39150    1.00320    0.89150   1.00
O2       0.39150    0.82680    0.93850   1.00
O2       0.32680    0.89150    0.93850   1.00
O2       0.39150    0.89150    1.00320   1.00
O2       0.50320    0.93850    0.93850   1.00
O2       0.43850    1.00320    0.93850   1.00
O2       0.43850    0.93850    1.00320   1.00
C1       0.41500    0.91500    0.80980   1.00
C1       0.41500    0.80980    0.91500   1.00
C1       0.52020    0.91500    0.91500   1.00
C1       0.30980    0.91500    0.91500   1.00
C1       0.41500    1.02020    0.91500   1.00
C1       0.41500    0.91500    1.02020   1.00
C4       0.74968    0.74930    0.97917   1.00
C4       0.75032    0.75070    1.02083   1.00
C3       0.71995    0.72942    0.95846   1.00
C3       0.71594    0.75531    1.04321   1.00
C3       0.77832    0.76858    0.95643   1.00
C3       0.78563    0.74654    1.04187   1.00
C2       0.74753    0.74820    0.89487   1.00
C2       0.75217    0.75169    1.10514   1.00
C3       0.71900    0.72889    0.91715   1.00
C3       0.71693    0.75584    1.08449   1.00
C3       0.77720    0.76798    0.91514   1.00
C3a      0.78675    0.74706    1.08328   1.00
H1       0.69746    0.71385    0.97425   1.00
H1       0.68810    0.75901    1.02875   1.00
H1       0.69583    0.71330    0.90240   1.00
H1       0.68999    0.75961    1.10056   1.00
H1       0.79952    0.78326    0.89882   1.00
C5       0.82529    0.74223    1.10380   1.00
H1       0.81275    0.74259    1.02622   1.00
H1       0.80135    0.78493    0.97059   1.00
H2       0.82165    0.74396    1.13599   1.00
H2       0.83698    0.71273    1.09705   1.00
N1       0.85284    0.77234    1.09125   1.00
C6       0.84870    0.81106    1.09644   1.00
C6       0.88707    0.76645    1.07288   1.00
C6       0.88055    0.83022    1.08102   1.00
C6       0.90496    0.80184    1.06604   1.00
H3       0.82390    0.82472    1.11049   1.00
H3       0.89853    0.73814    1.06484   1.00
H3       0.88545    0.86138    1.08076   1.00
H3       0.93272    0.80646    1.05180   1.00
C4       0.74930    0.97917    0.74968   1.00
C4       0.75070    1.02083    0.75032   1.00
C3       0.72942    0.95846    0.71995   1.00
C3       0.75531    1.04321    0.71594   1.00
C3       0.76858    0.95643    0.77832   1.00
C3       0.74654    1.04187    0.78563   1.00
C2       0.74820    0.89487    0.74753   1.00
C2       0.75169    1.10514    0.75217   1.00
C3       0.72889    0.91715    0.71900   1.00
C3       0.75584    1.08449    0.71693   1.00
C3       0.76798    0.91514    0.77720   1.00
C3a      0.74706    1.08328    0.78675   1.00
H1       0.71385    0.97425    0.69746   1.00
H1       0.75901    1.02875    0.68810   1.00
H1       0.71330    0.90240    0.69583   1.00
H1       0.75961    1.10056    0.68999   1.00
H1       0.78326    0.89882    0.79952   1.00
C5       0.74223    1.10380    0.82529   1.00
H1       0.74259    1.02622    0.81275   1.00
H1       0.78493    0.97059    0.80135   1.00
H2       0.74396    1.13599    0.82165   1.00
H2       0.71273    1.09705    0.83698   1.00
N1       0.77234    1.09125    0.85284   1.00
C6       0.81106    1.09644    0.84870   1.00
C6       0.76645    1.07288    0.88707   1.00
C6       0.83022    1.08102    0.88055   1.00
C6       0.80184    1.06604    0.90496   1.00
H3       0.82472    1.11049    0.82390   1.00
H3       0.73814    1.06484    0.89853   1.00
H3       0.86138    1.08076    0.88545   1.00
H3       0.80646    1.05180    0.93272   1.00
C4       0.52083    0.74968    0.75070   1.00
C4       0.47917    0.75032    0.74930   1.00
C3       0.54154    0.71995    0.77058   1.00
C3       0.45679    0.71594    0.74469   1.00
C3       0.54357    0.77832    0.73142   1.00
C3       0.45813    0.78563    0.75346   1.00
C2       0.60513    0.74753    0.75180   1.00
C2       0.39486    0.75217    0.74831   1.00
C3       0.58285    0.71900    0.77111   1.00
C3       0.41551    0.71693    0.74416   1.00
C3       0.58486    0.77720    0.73202   1.00
C3a      0.41672    0.78675    0.75294   1.00
H1       0.52575    0.69746    0.78615   1.00
H1       0.47125    0.68810    0.74099   1.00
H1       0.59760    0.69583    0.78670   1.00
H1       0.39944    0.68999    0.74039   1.00
H1       0.60118    0.79952    0.71674   1.00
C5       0.39620    0.82529    0.75777   1.00
H1       0.47378    0.81275    0.75741   1.00
H1       0.52941    0.80135    0.71507   1.00
H2       0.36401    0.82165    0.75604   1.00
H2       0.40295    0.83698    0.78727   1.00
N1       0.40875    0.85284    0.72766   1.00
C6       0.40356    0.84870    0.68894   1.00
C6       0.42712    0.88707    0.73355   1.00
C6       0.41898    0.88055    0.66978   1.00
C6       0.43396    0.90496    0.69816   1.00
H3       0.38951    0.82390    0.67528   1.00
H3       0.43516    0.89853    0.76186   1.00
H3       0.41924    0.88545    0.63862   1.00
H3       0.44820    0.93272    0.69354   1.00
C4       0.97917    0.74968    0.74930   1.00
C4       1.02083    0.75032    0.75070   1.00
C3       0.95846    0.71995    0.72942   1.00
C3       1.04321    0.71594    0.75531   1.00
C3       0.95643    0.77832    0.76858   1.00
C3       1.04187    0.78563    0.74654   1.00
C2       0.89487    0.74753    0.74820   1.00
C2       1.10514    0.75217    0.75169   1.00
C3       0.91715    0.71900    0.72889   1.00
C3       1.08449    0.71693    0.75584   1.00
C3       0.91514    0.77720    0.76798   1.00
C3a      1.08328    0.78675    0.74706   1.00
H1       0.97425    0.69746    0.71385   1.00
H1       1.02875    0.68810    0.75901   1.00
H1       0.90240    0.69583    0.71330   1.00
H1       1.10056    0.68999    0.75961   1.00
H1       0.89882    0.79952    0.78326   1.00
C5       1.10380    0.82529    0.74223   1.00
H1       1.02622    0.81275    0.74259   1.00
H1       0.97059    0.80135    0.78493   1.00
H2       1.13599    0.82165    0.74396   1.00
H2       1.09705    0.83698    0.71273   1.00
N1       1.09125    0.85284    0.77234   1.00
C6       1.09644    0.84870    0.81106   1.00
C6       1.07288    0.88707    0.76645   1.00
C6       1.08102    0.88055    0.83022   1.00
C6       1.06604    0.90496    0.80184   1.00
H3       1.11049    0.82390    0.82472   1.00
H3       1.06484    0.89853    0.73814   1.00
H3       1.08076    0.88545    0.86138   1.00
H3       1.05180    0.93272    0.80646   1.00
C4       0.75070    0.52083    0.74968   1.00
C4       0.74930    0.47917    0.75032   1.00
C3       0.77058    0.54154    0.71995   1.00
C3       0.74469    0.45679    0.71594   1.00
C3       0.73142    0.54357    0.77832   1.00
C3       0.75346    0.45813    0.78563   1.00
C2       0.75180    0.60513    0.74753   1.00
C2       0.74831    0.39486    0.75217   1.00
C3       0.77111    0.58285    0.71900   1.00
C3       0.74416    0.41551    0.71693   1.00
C3       0.73202    0.58486    0.77720   1.00
C3a      0.75294    0.41672    0.78675   1.00
H1       0.78615    0.52575    0.69746   1.00
H1       0.74099    0.47125    0.68810   1.00
H1       0.78670    0.59760    0.69583   1.00
H1       0.74039    0.39944    0.68999   1.00
H1       0.71674    0.60118    0.79952   1.00
C5       0.75777    0.39620    0.82529   1.00
H1       0.75741    0.47378    0.81275   1.00
H1       0.71507    0.52941    0.80135   1.00
H2       0.75604    0.36401    0.82165   1.00
H2       0.78727    0.40295    0.83698   1.00
N1       0.72766    0.40875    0.85284   1.00
C6       0.68894    0.40356    0.84870   1.00
C6       0.73355    0.42712    0.88707   1.00
C6       0.66978    0.41898    0.88055   1.00
C6       0.69816    0.43396    0.90496   1.00
H3       0.67528    0.38951    0.82390   1.00
H3       0.76186    0.43516    0.89853   1.00
H3       0.63862    0.41924    0.88545   1.00
H3       0.69354    0.44820    0.93272   1.00
C4       0.74968    0.75070    0.52083   1.00
C4       0.75032    0.74930    0.47917   1.00
C3       0.71995    0.77058    0.54154   1.00
C3       0.71594    0.74469    0.45679   1.00
C3       0.77832    0.73142    0.54357   1.00
C3       0.78563    0.75346    0.45813   1.00
C2       0.74753    0.75180    0.60513   1.00
C2       0.75217    0.74831    0.39486   1.00
C3       0.71900    0.77111    0.58285   1.00
C3       0.71693    0.74416    0.41551   1.00
C3       0.77720    0.73202    0.58486   1.00
C3a      0.78675    0.75294    0.41672   1.00
H1       0.69746    0.78615    0.52575   1.00
H1       0.68810    0.74099    0.47125   1.00
H1       0.69583    0.78670    0.59760   1.00
H1       0.68999    0.74039    0.39944   1.00
H1       0.79952    0.71674    0.60118   1.00
C5       0.82529    0.75777    0.39620   1.00
H1       0.81275    0.75741    0.47378   1.00
H1       0.80135    0.71507    0.52941   1.00
H2       0.82165    0.75604    0.36401   1.00
H2       0.83698    0.78727    0.40295   1.00
N1       0.85284    0.72766    0.40875   1.00
C6       0.84870    0.68894    0.40356   1.00
C6       0.88707    0.73355    0.42712   1.00
C6       0.88055    0.66978    0.41898   1.00
C6       0.90496    0.69816    0.43396   1.00
H3       0.82390    0.67528    0.38951   1.00
H3       0.89853    0.76186    0.43516   1.00
H3       0.88545    0.63862    0.41924   1.00
H3       0.93272    0.69354    0.44820   1.00
C4       0.24968    0.24930    0.97917   1.00
C4       0.25032    0.25070    1.02083   1.00
C3       0.21995    0.22942    0.95846   1.00
C3       0.21594    0.25531    1.04321   1.00
C3       0.27832    0.26858    0.95643   1.00
C3       0.28563    0.24654    1.04187   1.00
C2       0.24753    0.24820    0.89487   1.00
C2       0.25217    0.25169    1.10514   1.00
C3       0.21900    0.22889    0.91715   1.00
C3       0.21693    0.25584    1.08449   1.00
C3       0.27720    0.26798    0.91514   1.00
C3a      0.28675    0.24706    1.08328   1.00
H1       0.19746    0.21385    0.97425   1.00
H1       0.18810    0.25901    1.02875   1.00
H1       0.19583    0.21330    0.90240   1.00
H1       0.18999    0.25961    1.10056   1.00
H1       0.29952    0.28326    0.89882   1.00
C5       0.32529    0.24223    1.10380   1.00
H1       0.31275    0.24259    1.02622   1.00
H1       0.30135    0.28493    0.97059   1.00
H2       0.32165    0.24396    1.13599   1.00
H2       0.33698    0.21273    1.09705   1.00
N1       0.35284    0.27234    1.09125   1.00
C6       0.34870    0.31106    1.09644   1.00
C6       0.38707    0.26645    1.07288   1.00
C6       0.38055    0.33022    1.08102   1.00
C6       0.40496    0.30184    1.06604   1.00
H3       0.32390    0.32472    1.11049   1.00
H3       0.39853    0.23814    1.06484   1.00
H3       0.38545    0.36138    1.08076   1.00
H3       0.43272    0.30646    1.05180   1.00
C4       0.24930    0.47917    0.74968   1.00
C4       0.25070    0.52083    0.75032   1.00
C3       0.22942    0.45846    0.71995   1.00
C3       0.25531    0.54321    0.71594   1.00
C3       0.26858    0.45643    0.77832   1.00
C3       0.24654    0.54187    0.78563   1.00
C2       0.24820    0.39487    0.74753   1.00
C2       0.25169    0.60514    0.75217   1.00
C3       0.22889    0.41715    0.71900   1.00
C3       0.25584    0.58449    0.71693   1.00
C3       0.26798    0.41514    0.77720   1.00
C3a      0.24706    0.58328    0.78675   1.00
H1       0.21385    0.47425    0.69746   1.00
H1       0.25901    0.52875    0.68810   1.00
H1       0.21330    0.40240    0.69583   1.00
H1       0.25961    0.60056    0.68999   1.00
H1       0.28326    0.39882    0.79952   1.00
C5       0.24223    0.60380    0.82529   1.00
H1       0.24259    0.52622    0.81275   1.00
H1       0.28493    0.47059    0.80135   1.00
H2       0.24396    0.63599    0.82165   1.00
H2       0.21273    0.59705    0.83698   1.00
N1       0.27234    0.59125    0.85284   1.00
C6       0.31106    0.59644    0.84870   1.00
C6       0.26645    0.57288    0.88707   1.00
C6       0.33022    0.58102    0.88055   1.00
C6       0.30184    0.56604    0.90496   1.00
H3       0.32472    0.61049    0.82390   1.00
H3       0.23814    0.56484    0.89853   1.00
H3       0.36138    0.58076    0.88545   1.00
H3       0.30646    0.55180    0.93272   1.00
C4       0.02083    0.24968    0.75070   1.00
C4       -0.02083   0.25032    0.74930   1.00
C3       0.04154    0.21995    0.77058   1.00
C3       -0.04321   0.21594    0.74469   1.00
C3       0.04357    0.27832    0.73142   1.00
C3       -0.04187   0.28563    0.75346   1.00
C2       0.10513    0.24753    0.75180   1.00
C2       -0.10514   0.25217    0.74831   1.00
C3       0.08285    0.21900    0.77111   1.00
C3       -0.08449   0.21693    0.74416   1.00
C3       0.08486    0.27720    0.73202   1.00
C3a      -0.08328   0.28675    0.75294   1.00
H1       0.02575    0.19746    0.78615   1.00
H1       -0.02875   0.18810    0.74099   1.00
H1       0.09760    0.19583    0.78670   1.00
H1       -0.10056   0.18999    0.74039   1.00
H1       0.10118    0.29952    0.71674   1.00
C5       -0.10380   0.32529    0.75777   1.00
H1       -0.02622   0.31275    0.75741   1.00
H1       0.02941    0.30135    0.71507   1.00
H2       -0.13599   0.32165    0.75604   1.00
H2       -0.09705   0.33698    0.78727   1.00
N1       -0.09125   0.35284    0.72766   1.00
C6       -0.09644   0.34870    0.68894   1.00
C6       -0.07288   0.38707    0.73355   1.00
C6       -0.08102   0.38055    0.66978   1.00
C6       -0.06604   0.40496    0.69816   1.00
H3       -0.11049   0.32390    0.67528   1.00
H3       -0.06484   0.39853    0.76186   1.00
H3       -0.08076   0.38545    0.63862   1.00
H3       -0.05180   0.43272    0.69354   1.00
C4       0.47917    0.24968    0.74930   1.00
C4       0.52083    0.25032    0.75070   1.00
C3       0.45846    0.21995    0.72942   1.00
C3       0.54321    0.21594    0.75531   1.00
C3       0.45643    0.27832    0.76858   1.00
C3       0.54187    0.28563    0.74654   1.00
C2       0.39487    0.24753    0.74820   1.00
C2       0.60514    0.25217    0.75169   1.00
C3       0.41715    0.21900    0.72889   1.00
C3       0.58449    0.21693    0.75584   1.00
C3       0.41514    0.27720    0.76798   1.00
C3a      0.58328    0.28675    0.74706   1.00
H1       0.47425    0.19746    0.71385   1.00
H1       0.52875    0.18810    0.75901   1.00
H1       0.40240    0.19583    0.71330   1.00
H1       0.60056    0.18999    0.75961   1.00
H1       0.39882    0.29952    0.78326   1.00
C5       0.60380    0.32529    0.74223   1.00
H1       0.52622    0.31275    0.74259   1.00
H1       0.47059    0.30135    0.78493   1.00
H2       0.63599    0.32165    0.74396   1.00
H2       0.59705    0.33698    0.71273   1.00
N1       0.59125    0.35284    0.77234   1.00
C6       0.59644    0.34870    0.81106   1.00
C6       0.57288    0.38707    0.76645   1.00
C6       0.58102    0.38055    0.83022   1.00
C6       0.56604    0.40496    0.80184   1.00
H3       0.61049    0.32390    0.82472   1.00
H3       0.56484    0.39853    0.73814   1.00
H3       0.58076    0.38545    0.86138   1.00
H3       0.55180    0.43272    0.80646   1.00
C4       0.25070    0.02083    0.74968   1.00
C4       0.24930    -0.02083   0.75032   1.00
C3       0.27058    0.04154    0.71995   1.00
C3       0.24469    -0.04321   0.71594   1.00
C3       0.23142    0.04357    0.77832   1.00
C3       0.25346    -0.04187   0.78563   1.00
C2       0.25180    0.10513    0.74753   1.00
C2       0.24831    -0.10514   0.75217   1.00
C3       0.27111    0.08285    0.71900   1.00
C3       0.24416    -0.08449   0.71693   1.00
C3       0.23202    0.08486    0.77720   1.00
C3a      0.25294    -0.08328   0.78675   1.00
H1       0.28615    0.02575    0.69746   1.00
H1       0.24099    -0.02875   0.68810   1.00
H1       0.28670    0.09760    0.69583   1.00
H1       0.24039    -0.10056   0.68999   1.00
H1       0.21674    0.10118    0.79952   1.00
C5       0.25777    -0.10380   0.82529   1.00
H1       0.25741    -0.02622   0.81275   1.00
H1       0.21507    0.02941    0.80135   1.00
H2       0.25604    -0.13599   0.82165   1.00
H2       0.28727    -0.09705   0.83698   1.00
N1       0.22766    -0.09125   0.85284   1.00
C6       0.18894    -0.09644   0.84870   1.00
C6       0.23355    -0.07288   0.88707   1.00
C6       0.16978    -0.08102   0.88055   1.00
C6       0.19816    -0.06604   0.90496   1.00
H3       0.17528    -0.11049   0.82390   1.00
H3       0.26186    -0.06484   0.89853   1.00
H3       0.13862    -0.08076   0.88545   1.00
H3       0.19354    -0.05180   0.93272   1.00
C4       0.24968    0.25070    0.52083   1.00
C4       0.25032    0.24930    0.47917   1.00
C3       0.21995    0.27058    0.54154   1.00
C3       0.21594    0.24469    0.45679   1.00
C3       0.27832    0.23142    0.54357   1.00
C3       0.28563    0.25346    0.45813   1.00
C2       0.24753    0.25180    0.60513   1.00
C2       0.25217    0.24831    0.39486   1.00
C3       0.21900    0.27111    0.58285   1.00
C3       0.21693    0.24416    0.41551   1.00
C3       0.27720    0.23202    0.58486   1.00
C3a      0.28675    0.25294    0.41672   1.00
H1       0.19746    0.28615    0.52575   1.00
H1       0.18810    0.24099    0.47125   1.00
H1       0.19583    0.28670    0.59760   1.00
H1       0.18999    0.24039    0.39944   1.00
H1       0.29952    0.21674    0.60118   1.00
C5       0.32529    0.25777    0.39620   1.00
H1       0.31275    0.25741    0.47378   1.00
H1       0.30135    0.21507    0.52941   1.00
H2       0.32165    0.25604    0.36401   1.00
H2       0.33698    0.28727    0.40295   1.00
N1       0.35284    0.22766    0.40875   1.00
C6       0.34870    0.18894    0.40356   1.00
C6       0.38707    0.23355    0.42712   1.00
C6       0.38055    0.16978    0.41898   1.00
C6       0.40496    0.19816    0.43396   1.00
H3       0.32390    0.17528    0.38951   1.00
H3       0.39853    0.26186    0.43516   1.00
H3       0.38545    0.13862    0.41924   1.00
H3       0.43272    0.19354    0.44820   1.00
C4       0.24968    0.74930    0.47917   1.00
C4       0.25032    0.75070    0.52083   1.00
C3       0.21995    0.72942    0.45846   1.00
C3       0.21594    0.75531    0.54321   1.00
C3       0.27832    0.76858    0.45643   1.00
C3       0.28563    0.74654    0.54187   1.00
C2       0.24753    0.74820    0.39487   1.00
C2       0.25217    0.75169    0.60514   1.00
C3       0.21900    0.72889    0.41715   1.00
C3       0.21693    0.75584    0.58449   1.00
C3       0.27720    0.76798    0.41514   1.00
C3a      0.28675    0.74706    0.58328   1.00
H1       0.19746    0.71385    0.47425   1.00
H1       0.18810    0.75901    0.52875   1.00
H1       0.19583    0.71330    0.40240   1.00
H1       0.18999    0.75961    0.60056   1.00
H1       0.29952    0.78326    0.39882   1.00
C5       0.32529    0.74223    0.60380   1.00
H1       0.31275    0.74259    0.52622   1.00
H1       0.30135    0.78493    0.47059   1.00
H2       0.32165    0.74396    0.63599   1.00
H2       0.33698    0.71273    0.59705   1.00
N1       0.35284    0.77234    0.59125   1.00
C6       0.34870    0.81106    0.59644   1.00
C6       0.38707    0.76645    0.57288   1.00
C6       0.38055    0.83022    0.58102   1.00
C6       0.40496    0.80184    0.56604   1.00
H3       0.32390    0.82472    0.61049   1.00
H3       0.39853    0.73814    0.56484   1.00
H3       0.38545    0.86138    0.58076   1.00
H3       0.43272    0.80646    0.55180   1.00
C4       0.24930    0.97917    0.24968   1.00
C4       0.25070    1.02083    0.25032   1.00
C3       0.22942    0.95846    0.21995   1.00
C3       0.25531    1.04321    0.21594   1.00
C3       0.26858    0.95643    0.27832   1.00
C3       0.24654    1.04187    0.28563   1.00
C2       0.24820    0.89487    0.24753   1.00
C2       0.25169    1.10514    0.25217   1.00
C3       0.22889    0.91715    0.21900   1.00
C3       0.25584    1.08449    0.21693   1.00
C3       0.26798    0.91514    0.27720   1.00
C3a      0.24706    1.08328    0.28675   1.00
H1       0.21385    0.97425    0.19746   1.00
H1       0.25901    1.02875    0.18810   1.00
H1       0.21330    0.90240    0.19583   1.00
H1       0.25961    1.10056    0.18999   1.00
H1       0.28326    0.89882    0.29952   1.00
C5       0.24223    1.10380    0.32529   1.00
H1       0.24259    1.02622    0.31275   1.00
H1       0.28493    0.97059    0.30135   1.00
H2       0.24396    1.13599    0.32165   1.00
H2       0.21273    1.09705    0.33698   1.00
N1       0.27234    1.09125    0.35284   1.00
C6       0.31106    1.09644    0.34870   1.00
C6       0.26645    1.07288    0.38707   1.00
C6       0.33022    1.08102    0.38055   1.00
C6       0.30184    1.06604    0.40496   1.00
H3       0.32472    1.11049    0.32390   1.00
H3       0.23814    1.06484    0.39853   1.00
H3       0.36138    1.08076    0.38545   1.00
H3       0.30646    1.05180    0.43272   1.00
C4       0.02083    0.74968    0.25070   1.00
C4       -0.02083   0.75032    0.24930   1.00
C3       0.04154    0.71995    0.27058   1.00
C3       -0.04321   0.71594    0.24469   1.00
C3       0.04357    0.77832    0.23142   1.00
C3       -0.04187   0.78563    0.25346   1.00
C2       0.10513    0.74753    0.25180   1.00
C2       -0.10514   0.75217    0.24831   1.00
C3       0.08285    0.71900    0.27111   1.00
C3       -0.08449   0.71693    0.24416   1.00
C3       0.08486    0.77720    0.23202   1.00
C3a      -0.08328   0.78675    0.25294   1.00
H1       0.02575    0.69746    0.28615   1.00
H1       -0.02875   0.68810    0.24099   1.00
H1       0.09760    0.69583    0.28670   1.00
H1       -0.10056   0.68999    0.24039   1.00
H1       0.10118    0.79952    0.21674   1.00
C5       -0.10380   0.82529    0.25777   1.00
H1       -0.02622   0.81275    0.25741   1.00
H1       0.02941    0.80135    0.21507   1.00
H2       -0.13599   0.82165    0.25604   1.00
H2       -0.09705   0.83698    0.28727   1.00
N1       -0.09125   0.85284    0.22766   1.00
C6       -0.09644   0.84870    0.18894   1.00
C6       -0.07288   0.88707    0.23355   1.00
C6       -0.08102   0.88055    0.16978   1.00
C6       -0.06604   0.90496    0.19816   1.00
H3       -0.11049   0.82390    0.17528   1.00
H3       -0.06484   0.89853    0.26186   1.00
H3       -0.08076   0.88545    0.13862   1.00
H3       -0.05180   0.93272    0.19354   1.00
C4       0.47917    0.74968    0.24930   1.00
C4       0.52083    0.75032    0.25070   1.00
C3       0.45846    0.71995    0.22942   1.00
C3       0.54321    0.71594    0.25531   1.00
C3       0.45643    0.77832    0.26858   1.00
C3       0.54187    0.78563    0.24654   1.00
C2       0.39487    0.74753    0.24820   1.00
C2       0.60514    0.75217    0.25169   1.00
C3       0.41715    0.71900    0.22889   1.00
C3       0.58449    0.71693    0.25584   1.00
C3       0.41514    0.77720    0.26798   1.00
C3a      0.58328    0.78675    0.24706   1.00
H1       0.47425    0.69746    0.21385   1.00
H1       0.52875    0.68810    0.25901   1.00
H1       0.40240    0.69583    0.21330   1.00
H1       0.60056    0.68999    0.25961   1.00
H1       0.39882    0.79952    0.28326   1.00
C5       0.60380    0.82529    0.24223   1.00
H1       0.52622    0.81275    0.24259   1.00
H1       0.47059    0.80135    0.28493   1.00
H2       0.63599    0.82165    0.24396   1.00
H2       0.59705    0.83698    0.21273   1.00
N1       0.59125    0.85284    0.27234   1.00
C6       0.59644    0.84870    0.31106   1.00
C6       0.57288    0.88707    0.26645   1.00
C6       0.58102    0.88055    0.33022   1.00
C6       0.56604    0.90496    0.30184   1.00
H3       0.61049    0.82390    0.32472   1.00
H3       0.56484    0.89853    0.23814   1.00
H3       0.58076    0.88545    0.36138   1.00
H3       0.55180    0.93272    0.30646   1.00
C4       0.25070    0.52083    0.24968   1.00
C4       0.24930    0.47917    0.25032   1.00
C3       0.27058    0.54154    0.21995   1.00
C3       0.24469    0.45679    0.21594   1.00
C3       0.23142    0.54357    0.27832   1.00
C3       0.25346    0.45813    0.28563   1.00
C2       0.25180    0.60513    0.24753   1.00
C2       0.24831    0.39486    0.25217   1.00
C3       0.27111    0.58285    0.21900   1.00
C3       0.24416    0.41551    0.21693   1.00
C3       0.23202    0.58486    0.27720   1.00
C3a      0.25294    0.41672    0.28675   1.00
H1       0.28615    0.52575    0.19746   1.00
H1       0.24099    0.47125    0.18810   1.00
H1       0.28670    0.59760    0.19583   1.00
H1       0.24039    0.39944    0.18999   1.00
H1       0.21674    0.60118    0.29952   1.00
C5       0.25777    0.39620    0.32529   1.00
H1       0.25741    0.47378    0.31275   1.00
H1       0.21507    0.52941    0.30135   1.00
H2       0.25604    0.36401    0.32165   1.00
H2       0.28727    0.40295    0.33698   1.00
N1       0.22766    0.40875    0.35284   1.00
C6       0.18894    0.40356    0.34870   1.00
C6       0.23355    0.42712    0.38707   1.00
C6       0.16978    0.41898    0.38055   1.00
C6       0.19816    0.43396    0.40496   1.00
H3       0.17528    0.38951    0.32390   1.00
H3       0.26186    0.43516    0.39853   1.00
H3       0.13862    0.41924    0.38545   1.00
H3       0.19354    0.44820    0.43272   1.00
C4       0.24968    0.75070    0.02083   1.00
C4       0.25032    0.74930    -0.02083   1.00
C3       0.21995    0.77058    0.04154   1.00
C3       0.21594    0.74469    -0.04321   1.00
C3       0.27832    0.73142    0.04357   1.00
C3       0.28563    0.75346    -0.04187   1.00
C2       0.24753    0.75180    0.10513   1.00
C2       0.25217    0.74831    -0.10514   1.00
C3       0.21900    0.77111    0.08285   1.00
C3       0.21693    0.74416    -0.08449   1.00
C3       0.27720    0.73202    0.08486   1.00
C3a      0.28675    0.75294    -0.08328   1.00
H1       0.19746    0.78615    0.02575   1.00
H1       0.18810    0.74099    -0.02875   1.00
H1       0.19583    0.78670    0.09760   1.00
H1       0.18999    0.74039    -0.10056   1.00
H1       0.29952    0.71674    0.10118   1.00
C5       0.32529    0.75777    -0.10380   1.00
H1       0.31275    0.75741    -0.02622   1.00
H1       0.30135    0.71507    0.02941   1.00
H2       0.32165    0.75604    -0.13599   1.00
H2       0.33698    0.78727    -0.09705   1.00
N1       0.35284    0.72766    -0.09125   1.00
C6       0.34870    0.68894    -0.09644   1.00
C6       0.38707    0.73355    -0.07288   1.00
C6       0.38055    0.66978    -0.08102   1.00
C6       0.40496    0.69816    -0.06604   1.00
H3       0.32390    0.67528    -0.11049   1.00
H3       0.39853    0.76186    -0.06484   1.00
H3       0.38545    0.63862    -0.08076   1.00
H3       0.43272    0.69354    -0.05180   1.00
C4       0.74968    0.24930    0.47917   1.00
C4       0.75032    0.25070    0.52083   1.00
C3       0.71995    0.22942    0.45846   1.00
C3       0.71594    0.25531    0.54321   1.00
C3       0.77832    0.26858    0.45643   1.00
C3       0.78563    0.24654    0.54187   1.00
C2       0.74753    0.24820    0.39487   1.00
C2       0.75217    0.25169    0.60514   1.00
C3       0.71900    0.22889    0.41715   1.00
C3       0.71693    0.25584    0.58449   1.00
C3       0.77720    0.26798    0.41514   1.00
C3a      0.78675    0.24706    0.58328   1.00
H1       0.69746    0.21385    0.47425   1.00
H1       0.68810    0.25901    0.52875   1.00
H1       0.69583    0.21330    0.40240   1.00
H1       0.68999    0.25961    0.60056   1.00
H1       0.79952    0.28326    0.39882   1.00
C5       0.82529    0.24223    0.60380   1.00
H1       0.81275    0.24259    0.52622   1.00
H1       0.80135    0.28493    0.47059   1.00
H2       0.82165    0.24396    0.63599   1.00
H2       0.83698    0.21273    0.59705   1.00
N1       0.85284    0.27234    0.59125   1.00
C6       0.84870    0.31106    0.59644   1.00
C6       0.88707    0.26645    0.57288   1.00
C6       0.88055    0.33022    0.58102   1.00
C6       0.90496    0.30184    0.56604   1.00
H3       0.82390    0.32472    0.61049   1.00
H3       0.89853    0.23814    0.56484   1.00
H3       0.88545    0.36138    0.58076   1.00
H3       0.93272    0.30646    0.55180   1.00
C4       0.74930    0.47917    0.24968   1.00
C4       0.75070    0.52083    0.25032   1.00
C3       0.72942    0.45846    0.21995   1.00
C3       0.75531    0.54321    0.21594   1.00
C3       0.76858    0.45643    0.27832   1.00
C3       0.74654    0.54187    0.28563   1.00
C2       0.74820    0.39487    0.24753   1.00
C2       0.75169    0.60514    0.25217   1.00
C3       0.72889    0.41715    0.21900   1.00
C3       0.75584    0.58449    0.21693   1.00
C3       0.76798    0.41514    0.27720   1.00
C3a      0.74706    0.58328    0.28675   1.00
H1       0.71385    0.47425    0.19746   1.00
H1       0.75901    0.52875    0.18810   1.00
H1       0.71330    0.40240    0.19583   1.00
H1       0.75961    0.60056    0.18999   1.00
H1       0.78326    0.39882    0.29952   1.00
C5       0.74223    0.60380    0.32529   1.00
H1       0.74259    0.52622    0.31275   1.00
H1       0.78493    0.47059    0.30135   1.00
H2       0.74396    0.63599    0.32165   1.00
H2       0.71273    0.59705    0.33698   1.00
N1       0.77234    0.59125    0.35284   1.00
C6       0.81106    0.59644    0.34870   1.00
C6       0.76645    0.57288    0.38707   1.00
C6       0.83022    0.58102    0.38055   1.00
C6       0.80184    0.56604    0.40496   1.00
H3       0.82472    0.61049    0.32390   1.00
H3       0.73814    0.56484    0.39853   1.00
H3       0.86138    0.58076    0.38545   1.00
H3       0.80646    0.55180    0.43272   1.00
C4       0.52083    0.24968    0.25070   1.00
C4       0.47917    0.25032    0.24930   1.00
C3       0.54154    0.21995    0.27058   1.00
C3       0.45679    0.21594    0.24469   1.00
C3       0.54357    0.27832    0.23142   1.00
C3       0.45813    0.28563    0.25346   1.00
C2       0.60513    0.24753    0.25180   1.00
C2       0.39486    0.25217    0.24831   1.00
C3       0.58285    0.21900    0.27111   1.00
C3       0.41551    0.21693    0.24416   1.00
C3       0.58486    0.27720    0.23202   1.00
C3a      0.41672    0.28675    0.25294   1.00
H1       0.52575    0.19746    0.28615   1.00
H1       0.47125    0.18810    0.24099   1.00
H1       0.59760    0.19583    0.28670   1.00
H1       0.39944    0.18999    0.24039   1.00
H1       0.60118    0.29952    0.21674   1.00
C5       0.39620    0.32529    0.25777   1.00
H1       0.47378    0.31275    0.25741   1.00
H1       0.52941    0.30135    0.21507   1.00
H2       0.36401    0.32165    0.25604   1.00
H2       0.40295    0.33698    0.28727   1.00
N1       0.40875    0.35284    0.22766   1.00
C6       0.40356    0.34870    0.18894   1.00
C6       0.42712    0.38707    0.23355   1.00
C6       0.41898    0.38055    0.16978   1.00
C6       0.43396    0.40496    0.19816   1.00
H3       0.38951    0.32390    0.17528   1.00
H3       0.43516    0.39853    0.26186   1.00
H3       0.41924    0.38545    0.13862   1.00
H3       0.44820    0.43272    0.19354   1.00
C4       0.97917    0.24968    0.24930   1.00
C4       1.02083    0.25032    0.25070   1.00
C3       0.95846    0.21995    0.22942   1.00
C3       1.04321    0.21594    0.25531   1.00
C3       0.95643    0.27832    0.26858   1.00
C3       1.04187    0.28563    0.24654   1.00
C2       0.89487    0.24753    0.24820   1.00
C2       1.10514    0.25217    0.25169   1.00
C3       0.91715    0.21900    0.22889   1.00
C3       1.08449    0.21693    0.25584   1.00
C3       0.91514    0.27720    0.26798   1.00
C3a      1.08328    0.28675    0.24706   1.00
H1       0.97425    0.19746    0.21385   1.00
H1       1.02875    0.18810    0.25901   1.00
H1       0.90240    0.19583    0.21330   1.00
H1       1.10056    0.18999    0.25961   1.00
H1       0.89882    0.29952    0.28326   1.00
C5       1.10380    0.32529    0.24223   1.00
H1       1.02622    0.31275    0.24259   1.00
H1       0.97059    0.30135    0.28493   1.00
H2       1.13599    0.32165    0.24396   1.00
H2       1.09705    0.33698    0.21273   1.00
N1       1.09125    0.35284    0.27234   1.00
C6       1.09644    0.34870    0.31106   1.00
C6       1.07288    0.38707    0.26645   1.00
C6       1.08102    0.38055    0.33022   1.00
C6       1.06604    0.40496    0.30184   1.00
H3       1.11049    0.32390    0.32472   1.00
H3       1.06484    0.39853    0.23814   1.00
H3       1.08076    0.38545    0.36138   1.00
H3       1.05180    0.43272    0.30646   1.00
C4       0.75070    0.02083    0.24968   1.00
C4       0.74930    -0.02083   0.25032   1.00
C3       0.77058    0.04154    0.21995   1.00
C3       0.74469    -0.04321   0.21594   1.00
C3       0.73142    0.04357    0.27832   1.00
C3       0.75346    -0.04187   0.28563   1.00
C2       0.75180    0.10513    0.24753   1.00
C2       0.74831    -0.10514   0.25217   1.00
C3       0.77111    0.08285    0.21900   1.00
C3       0.74416    -0.08449   0.21693   1.00
C3       0.73202    0.08486    0.27720   1.00
C3a      0.75294    -0.08328   0.28675   1.00
H1       0.78615    0.02575    0.19746   1.00
H1       0.74099    -0.02875   0.18810   1.00
H1       0.78670    0.09760    0.19583   1.00
H1       0.74039    -0.10056   0.18999   1.00
H1       0.71674    0.10118    0.29952   1.00
C5       0.75777    -0.10380   0.32529   1.00
H1       0.75741    -0.02622   0.31275   1.00
H1       0.71507    0.02941    0.30135   1.00
H2       0.75604    -0.13599   0.32165   1.00
H2       0.78727    -0.09705   0.33698   1.00
N1       0.72766    -0.09125   0.35284   1.00
C6       0.68894    -0.09644   0.34870   1.00
C6       0.73355    -0.07288   0.38707   1.00
C6       0.66978    -0.08102   0.38055   1.00
C6       0.69816    -0.06604   0.40496   1.00
H3       0.67528    -0.11049   0.32390   1.00
H3       0.76186    -0.06484   0.39853   1.00
H3       0.63862    -0.08076   0.38545   1.00
H3       0.69354    -0.05180   0.43272   1.00
C4       0.74968    0.25070    0.02083   1.00
C4       0.75032    0.24930    -0.02083   1.00
C3       0.71995    0.27058    0.04154   1.00
C3       0.71594    0.24469    -0.04321   1.00
C3       0.77832    0.23142    0.04357   1.00
C3       0.78563    0.25346    -0.04187   1.00
C2       0.74753    0.25180    0.10513   1.00
C2       0.75217    0.24831    -0.10514   1.00
C3       0.71900    0.27111    0.08285   1.00
C3       0.71693    0.24416    -0.08449   1.00
C3       0.77720    0.23202    0.08486   1.00
C3a      0.78675    0.25294    -0.08328   1.00
H1       0.69746    0.28615    0.02575   1.00
H1       0.68810    0.24099    -0.02875   1.00
H1       0.69583    0.28670    0.09760   1.00
H1       0.68999    0.24039    -0.10056   1.00
H1       0.79952    0.21674    0.10118   1.00
C5       0.82529    0.25777    -0.10380   1.00
H1       0.81275    0.25741    -0.02622   1.00
H1       0.80135    0.21507    0.02941   1.00
H2       0.82165    0.25604    -0.13599   1.00
H2       0.83698    0.28727    -0.09705   1.00
N1       0.85284    0.22766    -0.09125   1.00
C6       0.84870    0.18894    -0.09644   1.00
C6       0.88707    0.23355    -0.07288   1.00
C6       0.88055    0.16978    -0.08102   1.00
C6       0.90496    0.19816    -0.06604   1.00
H3       0.82390    0.17528    -0.11049   1.00
H3       0.89853    0.26186    -0.06484   1.00
H3       0.88545    0.13862    -0.08076   1.00
H3       0.93272    0.19354    -0.05180   1.00
C4       0.91468    0.91430    1.14417   1.00
C4       0.91532    0.91570    1.18583   1.00
C3       0.88495    0.89442    1.12346   1.00
C3       0.88094    0.92031    1.20821   1.00
C3       0.94332    0.93358    1.12143   1.00
C3       0.95063    0.91154    1.20687   1.00
C2       0.91253    0.91320    1.05987   1.00
C2       0.91717    0.91669    1.27014   1.00
C3       0.88400    0.89389    1.08215   1.00
C3       0.88193    0.92084    1.24949   1.00
C3       0.94220    0.93298    1.08014   1.00
C3a      0.95175    0.91206    1.24828   1.00
H1       0.86246    0.87885    1.13925   1.00
H1       0.85310    0.92401    1.19375   1.00
H1       0.86083    0.87830    1.06740   1.00
H1       0.85499    0.92461    1.26556   1.00
H1       0.96452    0.94826    1.06382   1.00
C5       0.99029    0.90723    1.26880   1.00
H1       0.97775    0.90759    1.19122   1.00
H1       0.96635    0.94993    1.13559   1.00
H2       0.98665    0.90896    1.30099   1.00
H2       1.00198    0.87773    1.26205   1.00
N1       1.01784    0.93734    1.25625   1.00
C6       1.01370    0.97606    1.26144   1.00
C6       1.05207    0.93145    1.23788   1.00
C6       1.04555    0.99522    1.24602   1.00
C6       1.06996    0.96684    1.23104   1.00
H3       0.98890    0.98972    1.27549   1.00
H3       1.06353    0.90314    1.22984   1.00
H3       1.05045    1.02638    1.24576   1.00
H3       1.09772    0.97146    1.21680   1.00
C4       0.91430    1.14417    0.91468   1.00
C4       0.91570    1.18583    0.91532   1.00
C3       0.89442    1.12346    0.88495   1.00
C3       0.92031    1.20821    0.88094   1.00
C3       0.93358    1.12143    0.94332   1.00
C3       0.91154    1.20687    0.95063   1.00
C2       0.91320    1.05987    0.91253   1.00
C2       0.91669    1.27014    0.91717   1.00
C3       0.89389    1.08215    0.88400   1.00
C3       0.92084    1.24949    0.88193   1.00
C3       0.93298    1.08014    0.94220   1.00
C3a      0.91206    1.24828    0.95175   1.00
H1       0.87885    1.13925    0.86246   1.00
H1       0.92401    1.19375    0.85310   1.00
H1       0.87830    1.06740    0.86083   1.00
H1       0.92461    1.26556    0.85499   1.00
H1       0.94826    1.06382    0.96452   1.00
C5       0.90723    1.26880    0.99029   1.00
H1       0.90759    1.19122    0.97775   1.00
H1       0.94993    1.13559    0.96635   1.00
H2       0.90896    1.30099    0.98665   1.00
H2       0.87773    1.26205    1.00198   1.00
N1       0.93734    1.25625    1.01784   1.00
C6       0.97606    1.26144    1.01370   1.00
C6       0.93145    1.23788    1.05207   1.00
C6       0.99522    1.24602    1.04555   1.00
C6       0.96684    1.23104    1.06996   1.00
H3       0.98972    1.27549    0.98890   1.00
H3       0.90314    1.22984    1.06353   1.00
H3       1.02638    1.24576    1.05045   1.00
H3       0.97146    1.21680    1.09772   1.00
C4       0.68583    0.91468    0.91570   1.00
C4       0.64417    0.91532    0.91430   1.00
C3       0.70654    0.88495    0.93558   1.00
C3       0.62179    0.88094    0.90969   1.00
C3       0.70857    0.94332    0.89642   1.00
C3       0.62313    0.95063    0.91846   1.00
C2       0.77013    0.91253    0.91680   1.00
C2       0.55986    0.91717    0.91331   1.00
C3       0.74785    0.88400    0.93611   1.00
C3       0.58051    0.88193    0.90916   1.00
C3       0.74986    0.94220    0.89702   1.00
C3a      0.58172    0.95175    0.91794   1.00
H1       0.69075    0.86246    0.95115   1.00
H1       0.63625    0.85310    0.90599   1.00
H1       0.76260    0.86083    0.95170   1.00
H1       0.56444    0.85499    0.90539   1.00
H1       0.76618    0.96452    0.88174   1.00
C5       0.56120    0.99029    0.92277   1.00
H1       0.63878    0.97775    0.92241   1.00
H1       0.69441    0.96635    0.88007   1.00
H2       0.52901    0.98665    0.92104   1.00
H2       0.56795    1.00198    0.95227   1.00
N1       0.57375    1.01784    0.89266   1.00
C6       0.56856    1.01370    0.85394   1.00
C6       0.59212    1.05207    0.89855   1.00
C6       0.58398    1.04555    0.83478   1.00
C6       0.59896    1.06996    0.86316   1.00
H3       0.55451    0.98890    0.84028   1.00
H3       0.60016    1.06353    0.92686   1.00
H3       0.58424    1.05045    0.80362   1.00
H3       0.61320    1.09772    0.85854   1.00
C4       1.14417    0.91468    0.91430   1.00
C4       1.18583    0.91532    0.91570   1.00
C3       1.12346    0.88495    0.89442   1.00
C3       1.20821    0.88094    0.92031   1.00
C3       1.12143    0.94332    0.93358   1.00
C3       1.20687    0.95063    0.91154   1.00
C2       1.05987    0.91253    0.91320   1.00
C2       1.27014    0.91717    0.91669   1.00
C3       1.08215    0.88400    0.89389   1.00
C3       1.24949    0.88193    0.92084   1.00
C3       1.08014    0.94220    0.93298   1.00
C3a      1.24828    0.95175    0.91206   1.00
H1       1.13925    0.86246    0.87885   1.00
H1       1.19375    0.85310    0.92401   1.00
H1       1.06740    0.86083    0.87830   1.00
H1       1.26556    0.85499    0.92461   1.00
H1       1.06382    0.96452    0.94826   1.00
C5       1.26880    0.99029    0.90723   1.00
H1       1.19122    0.97775    0.90759   1.00
H1       1.13559    0.96635    0.94993   1.00
H2       1.30099    0.98665    0.90896   1.00
H2       1.26205    1.00198    0.87773   1.00
N1       1.25625    1.01784    0.93734   1.00
C6       1.26144    1.01370    0.97606   1.00
C6       1.23788    1.05207    0.93145   1.00
C6       1.24602    1.04555    0.99522   1.00
C6       1.23104    1.06996    0.96684   1.00
H3       1.27549    0.98890    0.98972   1.00
H3       1.22984    1.06353    0.90314   1.00
H3       1.24576    1.05045    1.02638   1.00
H3       1.21680    1.09772    0.97146   1.00
C4       0.91570    0.68583    0.91468   1.00
C4       0.91430    0.64417    0.91532   1.00
C3       0.93558    0.70654    0.88495   1.00
C3       0.90969    0.62179    0.88094   1.00
C3       0.89642    0.70857    0.94332   1.00
C3       0.91846    0.62313    0.95063   1.00
C2       0.91680    0.77013    0.91253   1.00
C2       0.91331    0.55986    0.91717   1.00
C3       0.93611    0.74785    0.88400   1.00
C3       0.90916    0.58051    0.88193   1.00
C3       0.89702    0.74986    0.94220   1.00
C3a      0.91794    0.58172    0.95175   1.00
H1       0.95115    0.69075    0.86246   1.00
H1       0.90599    0.63625    0.85310   1.00
H1       0.95170    0.76260    0.86083   1.00
H1       0.90539    0.56444    0.85499   1.00
H1       0.88174    0.76618    0.96452   1.00
C5       0.92277    0.56120    0.99029   1.00
H1       0.92241    0.63878    0.97775   1.00
H1       0.88007    0.69441    0.96635   1.00
H2       0.92104    0.52901    0.98665   1.00
H2       0.95227    0.56795    1.00198   1.00
N1       0.89266    0.57375    1.01784   1.00
C6       0.85394    0.56856    1.01370   1.00
C6       0.89855    0.59212    1.05207   1.00
C6       0.83478    0.58398    1.04555   1.00
C6       0.86316    0.59896    1.06996   1.00
H3       0.84028    0.55451    0.98890   1.00
H3       0.92686    0.60016    1.06353   1.00
H3       0.80362    0.58424    1.05045   1.00
H3       0.85854    0.61320    1.09772   1.00
C4       0.91468    0.91570    0.68583   1.00
C4       0.91532    0.91430    0.64417   1.00
C3       0.88495    0.93558    0.70654   1.00
C3       0.88094    0.90969    0.62179   1.00
C3       0.94332    0.89642    0.70857   1.00
C3       0.95063    0.91846    0.62313   1.00
C2       0.91253    0.91680    0.77013   1.00
C2       0.91717    0.91331    0.55986   1.00
C3       0.88400    0.93611    0.74785   1.00
C3       0.88193    0.90916    0.58051   1.00
C3       0.94220    0.89702    0.74986   1.00
C3a      0.95175    0.91794    0.58172   1.00
H1       0.86246    0.95115    0.69075   1.00
H1       0.85310    0.90599    0.63625   1.00
H1       0.86083    0.95170    0.76260   1.00
H1       0.85499    0.90539    0.56444   1.00
H1       0.96452    0.88174    0.76618   1.00
C5       0.99029    0.92277    0.56120   1.00
H1       0.97775    0.92241    0.63878   1.00
H1       0.96635    0.88007    0.69441   1.00
H2       0.98665    0.92104    0.52901   1.00
H2       1.00198    0.95227    0.56795   1.00
N1       1.01784    0.89266    0.57375   1.00
C6       1.01370    0.85394    0.56856   1.00
C6       1.05207    0.89855    0.59212   1.00
C6       1.04555    0.83478    0.58398   1.00
C6       1.06996    0.86316    0.59896   1.00
H3       0.98890    0.84028    0.55451   1.00
H3       1.06353    0.92686    0.60016   1.00
H3       1.05045    0.80362    0.58424   1.00
H3       1.09772    0.85854    0.61320   1.00
C4       0.41468    0.41430    1.14417   1.00
C4       0.41532    0.41570    1.18583   1.00
C3       0.38495    0.39442    1.12346   1.00
C3       0.38094    0.42031    1.20821   1.00
C3       0.44332    0.43358    1.12143   1.00
C3       0.45063    0.41154    1.20687   1.00
C2       0.41253    0.41320    1.05987   1.00
C2       0.41717    0.41669    1.27014   1.00
C3       0.38400    0.39389    1.08215   1.00
C3       0.38193    0.42084    1.24949   1.00
C3       0.44220    0.43298    1.08014   1.00
C3a      0.45175    0.41206    1.24828   1.00
H1       0.36246    0.37885    1.13925   1.00
H1       0.35310    0.42401    1.19375   1.00
H1       0.36083    0.37830    1.06740   1.00
H1       0.35499    0.42461    1.26556   1.00
H1       0.46452    0.44826    1.06382   1.00
C5       0.49029    0.40723    1.26880   1.00
H1       0.47775    0.40759    1.19122   1.00
H1       0.46635    0.44993    1.13559   1.00
H2       0.48665    0.40896    1.30099   1.00
H2       0.50198    0.37773    1.26205   1.00
N1       0.51784    0.43734    1.25625   1.00
C6       0.51370    0.47606    1.26144   1.00
C6       0.55207    0.43145    1.23788   1.00
C6       0.54555    0.49522    1.24602   1.00
C6       0.56996    0.46684    1.23104   1.00
H3       0.48890    0.48972    1.27549   1.00
H3       0.56353    0.40314    1.22984   1.00
H3       0.55045    0.52638    1.24576   1.00
H3       0.59772    0.47146    1.21680   1.00
C4       0.41430    0.64417    0.91468   1.00
C4       0.41570    0.68583    0.91532   1.00
C3       0.39442    0.62346    0.88495   1.00
C3       0.42031    0.70821    0.88094   1.00
C3       0.43358    0.62143    0.94332   1.00
C3       0.41154    0.70687    0.95063   1.00
C2       0.41320    0.55987    0.91253   1.00
C2       0.41669    0.77014    0.91717   1.00
C3       0.39389    0.58215    0.88400   1.00
C3       0.42084    0.74949    0.88193   1.00
C3       0.43298    0.58014    0.94220   1.00
C3a      0.41206    0.74828    0.95175   1.00
H1       0.37885    0.63925    0.86246   1.00
H1       0.42401    0.69375    0.85310   1.00
H1       0.37830    0.56740    0.86083   1.00
H1       0.42461    0.76556    0.85499   1.00
H1       0.44826    0.56382    0.96452   1.00
C5       0.40723    0.76880    0.99029   1.00
H1       0.40759    0.69122    0.97775   1.00
H1       0.44993    0.63559    0.96635   1.00
H2       0.40896    0.80099    0.98665   1.00
H2       0.37773    0.76205    1.00198   1.00
N1       0.43734    0.75625    1.01784   1.00
C6       0.47606    0.76144    1.01370   1.00
C6       0.43145    0.73788    1.05207   1.00
C6       0.49522    0.74602    1.04555   1.00
C6       0.46684    0.73104    1.06996   1.00
H3       0.48972    0.77549    0.98890   1.00
H3       0.40314    0.72984    1.06353   1.00
H3       0.52638    0.74576    1.05045   1.00
H3       0.47146    0.71680    1.09772   1.00
C4       0.18583    0.41468    0.91570   1.00
C4       0.14417    0.41532    0.91430   1.00
C3       0.20654    0.38495    0.93558   1.00
C3       0.12179    0.38094    0.90969   1.00
C3       0.20857    0.44332    0.89642   1.00
C3       0.12313    0.45063    0.91846   1.00
C2       0.27013    0.41253    0.91680   1.00
C2       0.05986    0.41717    0.91331   1.00
C3       0.24785    0.38400    0.93611   1.00
C3       0.08051    0.38193    0.90916   1.00
C3       0.24986    0.44220    0.89702   1.00
C3a      0.08172    0.45175    0.91794   1.00
H1       0.19075    0.36246    0.95115   1.00
H1       0.13625    0.35310    0.90599   1.00
H1       0.26260    0.36083    0.95170   1.00
H1       0.06444    0.35499    0.90539   1.00
H1       0.26618    0.46452    0.88174   1.00
C5       0.06120    0.49029    0.92277   1.00
H1       0.13878    0.47775    0.92241   1.00
H1       0.19441    0.46635    0.88007   1.00
H2       0.02901    0.48665    0.92104   1.00
H2       0.06795    0.50198    0.95227   1.00
N1       0.07375    0.51784    0.89266   1.00
C6       0.06856    0.51370    0.85394   1.00
C6       0.09212    0.55207    0.89855   1.00
C6       0.08398    0.54555    0.83478   1.00
C6       0.09896    0.56996    0.86316   1.00
H3       0.05451    0.48890    0.84028   1.00
H3       0.10016    0.56353    0.92686   1.00
H3       0.08424    0.55045    0.80362   1.00
H3       0.11320    0.59772    0.85854   1.00
C4       0.64417    0.41468    0.91430   1.00
C4       0.68583    0.41532    0.91570   1.00
C3       0.62346    0.38495    0.89442   1.00
C3       0.70821    0.38094    0.92031   1.00
C3       0.62143    0.44332    0.93358   1.00
C3       0.70687    0.45063    0.91154   1.00
C2       0.55987    0.41253    0.91320   1.00
C2       0.77014    0.41717    0.91669   1.00
C3       0.58215    0.38400    0.89389   1.00
C3       0.74949    0.38193    0.92084   1.00
C3       0.58014    0.44220    0.93298   1.00
C3a      0.74828    0.45175    0.91206   1.00
H1       0.63925    0.36246    0.87885   1.00
H1       0.69375    0.35310    0.92401   1.00
H1       0.56740    0.36083    0.87830   1.00
H1       0.76556    0.35499    0.92461   1.00
H1       0.56382    0.46452    0.94826   1.00
C5       0.76880    0.49029    0.90723   1.00
H1       0.69122    0.47775    0.90759   1.00
H1       0.63559    0.46635    0.94993   1.00
H2       0.80099    0.48665    0.90896   1.00
H2       0.76205    0.50198    0.87773   1.00
N1       0.75625    0.51784    0.93734   1.00
C6       0.76144    0.51370    0.97606   1.00
C6       0.73788    0.55207    0.93145   1.00
C6       0.74602    0.54555    0.99522   1.00
C6       0.73104    0.56996    0.96684   1.00
H3       0.77549    0.48890    0.98972   1.00
H3       0.72984    0.56353    0.90314   1.00
H3       0.74576    0.55045    1.02638   1.00
H3       0.71680    0.59772    0.97146   1.00
C4       0.41570    0.18583    0.91468   1.00
C4       0.41430    0.14417    0.91532   1.00
C3       0.43558    0.20654    0.88495   1.00
C3       0.40969    0.12179    0.88094   1.00
C3       0.39642    0.20857    0.94332   1.00
C3       0.41846    0.12313    0.95063   1.00
C2       0.41680    0.27013    0.91253   1.00
C2       0.41331    0.05986    0.91717   1.00
C3       0.43611    0.24785    0.88400   1.00
C3       0.40916    0.08051    0.88193   1.00
C3       0.39702    0.24986    0.94220   1.00
C3a      0.41794    0.08172    0.95175   1.00
H1       0.45115    0.19075    0.86246   1.00
H1       0.40599    0.13625    0.85310   1.00
H1       0.45170    0.26260    0.86083   1.00
H1       0.40539    0.06444    0.85499   1.00
H1       0.38174    0.26618    0.96452   1.00
C5       0.42277    0.06120    0.99029   1.00
H1       0.42241    0.13878    0.97775   1.00
H1       0.38007    0.19441    0.96635   1.00
H2       0.42104    0.02901    0.98665   1.00
H2       0.45227    0.06795    1.00198   1.00
N1       0.39266    0.07375    1.01784   1.00
C6       0.35394    0.06856    1.01370   1.00
C6       0.39855    0.09212    1.05207   1.00
C6       0.33478    0.08398    1.04555   1.00
C6       0.36316    0.09896    1.06996   1.00
H3       0.34028    0.05451    0.98890   1.00
H3       0.42686    0.10016    1.06353   1.00
H3       0.30362    0.08424    1.05045   1.00
H3       0.35854    0.11320    1.09772   1.00
C4       0.41468    0.41570    0.68583   1.00
C4       0.41532    0.41430    0.64417   1.00
C3       0.38495    0.43558    0.70654   1.00
C3       0.38094    0.40969    0.62179   1.00
C3       0.44332    0.39642    0.70857   1.00
C3       0.45063    0.41846    0.62313   1.00
C2       0.41253    0.41680    0.77013   1.00
C2       0.41717    0.41331    0.55986   1.00
C3       0.38400    0.43611    0.74785   1.00
C3       0.38193    0.40916    0.58051   1.00
C3       0.44220    0.39702    0.74986   1.00
C3a      0.45175    0.41794    0.58172   1.00
H1       0.36246    0.45115    0.69075   1.00
H1       0.35310    0.40599    0.63625   1.00
H1       0.36083    0.45170    0.76260   1.00
H1       0.35499    0.40539    0.56444   1.00
H1       0.46452    0.38174    0.76618   1.00
C5       0.49029    0.42277    0.56120   1.00
H1       0.47775    0.42241    0.63878   1.00
H1       0.46635    0.38007    0.69441   1.00
H2       0.48665    0.42104    0.52901   1.00
H2       0.50198    0.45227    0.56795   1.00
N1       0.51784    0.39266    0.57375   1.00
C6       0.51370    0.35394    0.56856   1.00
C6       0.55207    0.39855    0.59212   1.00
C6       0.54555    0.33478    0.58398   1.00
C6       0.56996    0.36316    0.59896   1.00
H3       0.48890    0.34028    0.55451   1.00
H3       0.56353    0.42686    0.60016   1.00
H3       0.55045    0.30362    0.58424   1.00
H3       0.59772    0.35854    0.61320   1.00
C4       0.41468    0.91430    0.64417   1.00
C4       0.41532    0.91570    0.68583   1.00
C3       0.38495    0.89442    0.62346   1.00
C3       0.38094    0.92031    0.70821   1.00
C3       0.44332    0.93358    0.62143   1.00
C3       0.45063    0.91154    0.70687   1.00
C2       0.41253    0.91320    0.55987   1.00
C2       0.41717    0.91669    0.77014   1.00
C3       0.38400    0.89389    0.58215   1.00
C3       0.38193    0.92084    0.74949   1.00
C3       0.44220    0.93298    0.58014   1.00
C3a      0.45175    0.91206    0.74828   1.00
H1       0.36246    0.87885    0.63925   1.00
H1       0.35310    0.92401    0.69375   1.00
H1       0.36083    0.87830    0.56740   1.00
H1       0.35499    0.92461    0.76556   1.00
H1       0.46452    0.94826    0.56382   1.00
C5       0.49029    0.90723    0.76880   1.00
H1       0.47775    0.90759    0.69122   1.00
H1       0.46635    0.94993    0.63559   1.00
H2       0.48665    0.90896    0.80099   1.00
H2       0.50198    0.87773    0.76205   1.00
N1       0.51784    0.93734    0.75625   1.00
C6       0.51370    0.97606    0.76144   1.00
C6       0.55207    0.93145    0.73788   1.00
C6       0.54555    0.99522    0.74602   1.00
C6       0.56996    0.96684    0.73104   1.00
H3       0.48890    0.98972    0.77549   1.00
H3       0.56353    0.90314    0.72984   1.00
H3       0.55045    1.02638    0.74576   1.00
H3       0.59772    0.97146    0.71680   1.00
C4       0.41430    1.14417    0.41468   1.00
C4       0.41570    1.18583    0.41532   1.00
C3       0.39442    1.12346    0.38495   1.00
C3       0.42031    1.20821    0.38094   1.00
C3       0.43358    1.12143    0.44332   1.00
C3       0.41154    1.20687    0.45063   1.00
C2       0.41320    1.05987    0.41253   1.00
C2       0.41669    1.27014    0.41717   1.00
C3       0.39389    1.08215    0.38400   1.00
C3       0.42084    1.24949    0.38193   1.00
C3       0.43298    1.08014    0.44220   1.00
C3a      0.41206    1.24828    0.45175   1.00
H1       0.37885    1.13925    0.36246   1.00
H1       0.42401    1.19375    0.35310   1.00
H1       0.37830    1.06740    0.36083   1.00
H1       0.42461    1.26556    0.35499   1.00
H1       0.44826    1.06382    0.46452   1.00
C5       0.40723    1.26880    0.49029   1.00
H1       0.40759    1.19122    0.47775   1.00
H1       0.44993    1.13559    0.46635   1.00
H2       0.40896    1.30099    0.48665   1.00
H2       0.37773    1.26205    0.50198   1.00
N1       0.43734    1.25625    0.51784   1.00
C6       0.47606    1.26144    0.51370   1.00
C6       0.43145    1.23788    0.55207   1.00
C6       0.49522    1.24602    0.54555   1.00
C6       0.46684    1.23104    0.56996   1.00
H3       0.48972    1.27549    0.48890   1.00
H3       0.40314    1.22984    0.56353   1.00
H3       0.52638    1.24576    0.55045   1.00
H3       0.47146    1.21680    0.59772   1.00
C4       0.18583    0.91468    0.41570   1.00
C4       0.14417    0.91532    0.41430   1.00
C3       0.20654    0.88495    0.43558   1.00
C3       0.12179    0.88094    0.40969   1.00
C3       0.20857    0.94332    0.39642   1.00
C3       0.12313    0.95063    0.41846   1.00
C2       0.27013    0.91253    0.41680   1.00
C2       0.05986    0.91717    0.41331   1.00
C3       0.24785    0.88400    0.43611   1.00
C3       0.08051    0.88193    0.40916   1.00
C3       0.24986    0.94220    0.39702   1.00
C3a      0.08172    0.95175    0.41794   1.00
H1       0.19075    0.86246    0.45115   1.00
H1       0.13625    0.85310    0.40599   1.00
H1       0.26260    0.86083    0.45170   1.00
H1       0.06444    0.85499    0.40539   1.00
H1       0.26618    0.96452    0.38174   1.00
C5       0.06120    0.99029    0.42277   1.00
H1       0.13878    0.97775    0.42241   1.00
H1       0.19441    0.96635    0.38007   1.00
H2       0.02901    0.98665    0.42104   1.00
H2       0.06795    1.00198    0.45227   1.00
N1       0.07375    1.01784    0.39266   1.00
C6       0.06856    1.01370    0.35394   1.00
C6       0.09212    1.05207    0.39855   1.00
C6       0.08398    1.04555    0.33478   1.00
C6       0.09896    1.06996    0.36316   1.00
H3       0.05451    0.98890    0.34028   1.00
H3       0.10016    1.06353    0.42686   1.00
H3       0.08424    1.05045    0.30362   1.00
H3       0.11320    1.09772    0.35854   1.00
C4       0.64417    0.91468    0.41430   1.00
C4       0.68583    0.91532    0.41570   1.00
C3       0.62346    0.88495    0.39442   1.00
C3       0.70821    0.88094    0.42031   1.00
C3       0.62143    0.94332    0.43358   1.00
C3       0.70687    0.95063    0.41154   1.00
C2       0.55987    0.91253    0.41320   1.00
C2       0.77014    0.91717    0.41669   1.00
C3       0.58215    0.88400    0.39389   1.00
C3       0.74949    0.88193    0.42084   1.00
C3       0.58014    0.94220    0.43298   1.00
C3a      0.74828    0.95175    0.41206   1.00
H1       0.63925    0.86246    0.37885   1.00
H1       0.69375    0.85310    0.42401   1.00
H1       0.56740    0.86083    0.37830   1.00
H1       0.76556    0.85499    0.42461   1.00
H1       0.56382    0.96452    0.44826   1.00
C5       0.76880    0.99029    0.40723   1.00
H1       0.69122    0.97775    0.40759   1.00
H1       0.63559    0.96635    0.44993   1.00
H2       0.80099    0.98665    0.40896   1.00
H2       0.76205    1.00198    0.37773   1.00
N1       0.75625    1.01784    0.43734   1.00
C6       0.76144    1.01370    0.47606   1.00
C6       0.73788    1.05207    0.43145   1.00
C6       0.74602    1.04555    0.49522   1.00
C6       0.73104    1.06996    0.46684   1.00
H3       0.77549    0.98890    0.48972   1.00
H3       0.72984    1.06353    0.40314   1.00
H3       0.74576    1.05045    0.52638   1.00
H3       0.71680    1.09772    0.47146   1.00
C4       0.41570    0.68583    0.41468   1.00
C4       0.41430    0.64417    0.41532   1.00
C3       0.43558    0.70654    0.38495   1.00
C3       0.40969    0.62179    0.38094   1.00
C3       0.39642    0.70857    0.44332   1.00
C3       0.41846    0.62313    0.45063   1.00
C2       0.41680    0.77013    0.41253   1.00
C2       0.41331    0.55986    0.41717   1.00
C3       0.43611    0.74785    0.38400   1.00
C3       0.40916    0.58051    0.38193   1.00
C3       0.39702    0.74986    0.44220   1.00
C3a      0.41794    0.58172    0.45175   1.00
H1       0.45115    0.69075    0.36246   1.00
H1       0.40599    0.63625    0.35310   1.00
H1       0.45170    0.76260    0.36083   1.00
H1       0.40539    0.56444    0.35499   1.00
H1       0.38174    0.76618    0.46452   1.00
C5       0.42277    0.56120    0.49029   1.00
H1       0.42241    0.63878    0.47775   1.00
H1       0.38007    0.69441    0.46635   1.00
H2       0.42104    0.52901    0.48665   1.00
H2       0.45227    0.56795    0.50198   1.00
N1       0.39266    0.57375    0.51784   1.00
C6       0.35394    0.56856    0.51370   1.00
C6       0.39855    0.59212    0.55207   1.00
C6       0.33478    0.58398    0.54555   1.00
C6       0.36316    0.59896    0.56996   1.00
H3       0.34028    0.55451    0.48890   1.00
H3       0.42686    0.60016    0.56353   1.00
H3       0.30362    0.58424    0.55045   1.00
H3       0.35854    0.61320    0.59772   1.00
C4       0.41468    0.91570    0.18583   1.00
C4       0.41532    0.91430    0.14417   1.00
C3       0.38495    0.93558    0.20654   1.00
C3       0.38094    0.90969    0.12179   1.00
C3       0.44332    0.89642    0.20857   1.00
C3       0.45063    0.91846    0.12313   1.00
C2       0.41253    0.91680    0.27013   1.00
C2       0.41717    0.91331    0.05986   1.00
C3       0.38400    0.93611    0.24785   1.00
C3       0.38193    0.90916    0.08051   1.00
C3       0.44220    0.89702    0.24986   1.00
C3a      0.45175    0.91794    0.08172   1.00
H1       0.36246    0.95115    0.19075   1.00
H1       0.35310    0.90599    0.13625   1.00
H1       0.36083    0.95170    0.26260   1.00
H1       0.35499    0.90539    0.06444   1.00
H1       0.46452    0.88174    0.26618   1.00
C5       0.49029    0.92277    0.06120   1.00
H1       0.47775    0.92241    0.13878   1.00
H1       0.46635    0.88007    0.19441   1.00
H2       0.48665    0.92104    0.02901   1.00
H2       0.50198    0.95227    0.06795   1.00
N1       0.51784    0.89266    0.07375   1.00
C6       0.51370    0.85394    0.06856   1.00
C6       0.55207    0.89855    0.09212   1.00
C6       0.54555    0.83478    0.08398   1.00
C6       0.56996    0.86316    0.09896   1.00
H3       0.48890    0.84028    0.05451   1.00
H3       0.56353    0.92686    0.10016   1.00
H3       0.55045    0.80362    0.08424   1.00
H3       0.59772    0.85854    0.11320   1.00
C4       0.91468    0.41430    0.64417   1.00
C4       0.91532    0.41570    0.68583   1.00
C3       0.88495    0.39442    0.62346   1.00
C3       0.88094    0.42031    0.70821   1.00
C3       0.94332    0.43358    0.62143   1.00
C3       0.95063    0.41154    0.70687   1.00
C2       0.91253    0.41320    0.55987   1.00
C2       0.91717    0.41669    0.77014   1.00
C3       0.88400    0.39389    0.58215   1.00
C3       0.88193    0.42084    0.74949   1.00
C3       0.94220    0.43298    0.58014   1.00
C3a      0.95175    0.41206    0.74828   1.00
H1       0.86246    0.37885    0.63925   1.00
H1       0.85310    0.42401    0.69375   1.00
H1       0.86083    0.37830    0.56740   1.00
H1       0.85499    0.42461    0.76556   1.00
H1       0.96452    0.44826    0.56382   1.00
C5       0.99029    0.40723    0.76880   1.00
H1       0.97775    0.40759    0.69122   1.00
H1       0.96635    0.44993    0.63559   1.00
H2       0.98665    0.40896    0.80099   1.00
H2       1.00198    0.37773    0.76205   1.00
N1       1.01784    0.43734    0.75625   1.00
C6       1.01370    0.47606    0.76144   1.00
C6       1.05207    0.43145    0.73788   1.00
C6       1.04555    0.49522    0.74602   1.00
C6       1.06996    0.46684    0.73104   1.00
H3       0.98890    0.48972    0.77549   1.00
H3       1.06353    0.40314    0.72984   1.00
H3       1.05045    0.52638    0.74576   1.00
H3       1.09772    0.47146    0.71680   1.00
C4       0.91430    0.64417    0.41468   1.00
C4       0.91570    0.68583    0.41532   1.00
C3       0.89442    0.62346    0.38495   1.00
C3       0.92031    0.70821    0.38094   1.00
C3       0.93358    0.62143    0.44332   1.00
C3       0.91154    0.70687    0.45063   1.00
C2       0.91320    0.55987    0.41253   1.00
C2       0.91669    0.77014    0.41717   1.00
C3       0.89389    0.58215    0.38400   1.00
C3       0.92084    0.74949    0.38193   1.00
C3       0.93298    0.58014    0.44220   1.00
C3a      0.91206    0.74828    0.45175   1.00
H1       0.87885    0.63925    0.36246   1.00
H1       0.92401    0.69375    0.35310   1.00
H1       0.87830    0.56740    0.36083   1.00
H1       0.92461    0.76556    0.35499   1.00
H1       0.94826    0.56382    0.46452   1.00
C5       0.90723    0.76880    0.49029   1.00
H1       0.90759    0.69122    0.47775   1.00
H1       0.94993    0.63559    0.46635   1.00
H2       0.90896    0.80099    0.48665   1.00
H2       0.87773    0.76205    0.50198   1.00
N1       0.93734    0.75625    0.51784   1.00
C6       0.97606    0.76144    0.51370   1.00
C6       0.93145    0.73788    0.55207   1.00
C6       0.99522    0.74602    0.54555   1.00
C6       0.96684    0.73104    0.56996   1.00
H3       0.98972    0.77549    0.48890   1.00
H3       0.90314    0.72984    0.56353   1.00
H3       1.02638    0.74576    0.55045   1.00
H3       0.97146    0.71680    0.59772   1.00
C4       0.68583    0.41468    0.41570   1.00
C4       0.64417    0.41532    0.41430   1.00
C3       0.70654    0.38495    0.43558   1.00
C3       0.62179    0.38094    0.40969   1.00
C3       0.70857    0.44332    0.39642   1.00
C3       0.62313    0.45063    0.41846   1.00
C2       0.77013    0.41253    0.41680   1.00
C2       0.55986    0.41717    0.41331   1.00
C3       0.74785    0.38400    0.43611   1.00
C3       0.58051    0.38193    0.40916   1.00
C3       0.74986    0.44220    0.39702   1.00
C3a      0.58172    0.45175    0.41794   1.00
H1       0.69075    0.36246    0.45115   1.00
H1       0.63625    0.35310    0.40599   1.00
H1       0.76260    0.36083    0.45170   1.00
H1       0.56444    0.35499    0.40539   1.00
H1       0.76618    0.46452    0.38174   1.00
C5       0.56120    0.49029    0.42277   1.00
H1       0.63878    0.47775    0.42241   1.00
H1       0.69441    0.46635    0.38007   1.00
H2       0.52901    0.48665    0.42104   1.00
H2       0.56795    0.50198    0.45227   1.00
N1       0.57375    0.51784    0.39266   1.00
C6       0.56856    0.51370    0.35394   1.00
C6       0.59212    0.55207    0.39855   1.00
C6       0.58398    0.54555    0.33478   1.00
C6       0.59896    0.56996    0.36316   1.00
H3       0.55451    0.48890    0.34028   1.00
H3       0.60016    0.56353    0.42686   1.00
H3       0.58424    0.55045    0.30362   1.00
H3       0.61320    0.59772    0.35854   1.00
C4       1.14417    0.41468    0.41430   1.00
C4       1.18583    0.41532    0.41570   1.00
C3       1.12346    0.38495    0.39442   1.00
C3       1.20821    0.38094    0.42031   1.00
C3       1.12143    0.44332    0.43358   1.00
C3       1.20687    0.45063    0.41154   1.00
C2       1.05987    0.41253    0.41320   1.00
C2       1.27014    0.41717    0.41669   1.00
C3       1.08215    0.38400    0.39389   1.00
C3       1.24949    0.38193    0.42084   1.00
C3       1.08014    0.44220    0.43298   1.00
C3a      1.24828    0.45175    0.41206   1.00
H1       1.13925    0.36246    0.37885   1.00
H1       1.19375    0.35310    0.42401   1.00
H1       1.06740    0.36083    0.37830   1.00
H1       1.26556    0.35499    0.42461   1.00
H1       1.06382    0.46452    0.44826   1.00
C5       1.26880    0.49029    0.40723   1.00
H1       1.19122    0.47775    0.40759   1.00
H1       1.13559    0.46635    0.44993   1.00
H2       1.30099    0.48665    0.40896   1.00
H2       1.26205    0.50198    0.37773   1.00
N1       1.25625    0.51784    0.43734   1.00
C6       1.26144    0.51370    0.47606   1.00
C6       1.23788    0.55207    0.43145   1.00
C6       1.24602    0.54555    0.49522   1.00
C6       1.23104    0.56996    0.46684   1.00
H3       1.27549    0.48890    0.48972   1.00
H3       1.22984    0.56353    0.40314   1.00
H3       1.24576    0.55045    0.52638   1.00
H3       1.21680    0.59772    0.47146   1.00
C4       0.91570    0.18583    0.41468   1.00
C4       0.91430    0.14417    0.41532   1.00
C3       0.93558    0.20654    0.38495   1.00
C3       0.90969    0.12179    0.38094   1.00
C3       0.89642    0.20857    0.44332   1.00
C3       0.91846    0.12313    0.45063   1.00
C2       0.91680    0.27013    0.41253   1.00
C2       0.91331    0.05986    0.41717   1.00
C3       0.93611    0.24785    0.38400   1.00
C3       0.90916    0.08051    0.38193   1.00
C3       0.89702    0.24986    0.44220   1.00
C3a      0.91794    0.08172    0.45175   1.00
H1       0.95115    0.19075    0.36246   1.00
H1       0.90599    0.13625    0.35310   1.00
H1       0.95170    0.26260    0.36083   1.00
H1       0.90539    0.06444    0.35499   1.00
H1       0.88174    0.26618    0.46452   1.00
C5       0.92277    0.06120    0.49029   1.00
H1       0.92241    0.13878    0.47775   1.00
H1       0.88007    0.19441    0.46635   1.00
H2       0.92104    0.02901    0.48665   1.00
H2       0.95227    0.06795    0.50198   1.00
N1       0.89266    0.07375    0.51784   1.00
C6       0.85394    0.06856    0.51370   1.00
C6       0.89855    0.09212    0.55207   1.00
C6       0.83478    0.08398    0.54555   1.00
C6       0.86316    0.09896    0.56996   1.00
H3       0.84028    0.05451    0.48890   1.00
H3       0.92686    0.10016    0.56353   1.00
H3       0.80362    0.08424    0.55045   1.00
H3       0.85854    0.11320    0.59772   1.00
C4       0.91468    0.41570    0.18583   1.00
C4       0.91532    0.41430    0.14417   1.00
C3       0.88495    0.43558    0.20654   1.00
C3       0.88094    0.40969    0.12179   1.00
C3       0.94332    0.39642    0.20857   1.00
C3       0.95063    0.41846    0.12313   1.00
C2       0.91253    0.41680    0.27013   1.00
C2       0.91717    0.41331    0.05986   1.00
C3       0.88400    0.43611    0.24785   1.00
C3       0.88193    0.40916    0.08051   1.00
C3       0.94220    0.39702    0.24986   1.00
C3a      0.95175    0.41794    0.08172   1.00
H1       0.86246    0.45115    0.19075   1.00
H1       0.85310    0.40599    0.13625   1.00
H1       0.86083    0.45170    0.26260   1.00
H1       0.85499    0.40539    0.06444   1.00
H1       0.96452    0.38174    0.26618   1.00
C5       0.99029    0.42277    0.06120   1.00
H1       0.97775    0.42241    0.13878   1.00
H1       0.96635    0.38007    0.19441   1.00
H2       0.98665    0.42104    0.02901   1.00
H2       1.00198    0.45227    0.06795   1.00
N1       1.01784    0.39266    0.07375   1.00
C6       1.01370    0.35394    0.06856   1.00
C6       1.05207    0.39855    0.09212   1.00
C6       1.04555    0.33478    0.08398   1.00
C6       1.06996    0.36316    0.09896   1.00
H3       0.98890    0.34028    0.05451   1.00
H3       1.06353    0.42686    0.10016   1.00
H3       1.05045    0.30362    0.08424   1.00
H3       1.09772    0.35854    0.11320   1.00
