data_IRMOF10_SG202_interpen_Ligand10cp_label_h.

_audit_creation_method             'generated by an auxiliary program of Tobunporous'

_symmetry_space_group_name_H-M     'P 1'
_symmetry_Int_Tables_number        1
_symmetry_cell_setting             triclinic

_cell_length_a                    34.2800
_cell_length_b                    34.2800
_cell_length_c                    34.2800
_cell_angle_alpha                 90.0000
_cell_angle_beta                  90.0000
_cell_angle_gamma                 90.0000

loop_
_atom_site_label
_atom_site_fract_x
_atom_site_fract_y
_atom_site_fract_z
_atom_site_occupancy
O1       0.75000    0.75000    0.75000   1.00
Zn1      0.71720    0.78280    0.78280   1.00
Zn1      0.78280    0.71720    0.78280   1.00
Zn1      0.78280    0.78280    0.71720   1.00
Zn1      0.71720    0.71720    0.71720   1.00
O2       0.72650    0.77350    0.83820   1.00
O2       0.72650    0.83820    0.77350   1.00
O2       0.66180    0.77350    0.77350   1.00
O2       0.77350    0.72650    0.83820   1.00
O2       0.83820    0.72650    0.77350   1.00
O2       0.77350    0.66180    0.77350   1.00
O2       0.77350    0.83820    0.72650   1.00
O2       0.83820    0.77350    0.72650   1.00
O2       0.77350    0.77350    0.66180   1.00
O2       0.66180    0.72650    0.72650   1.00
O2       0.72650    0.66180    0.72650   1.00
O2       0.72650    0.72650    0.66180   1.00
C1       0.75000    0.75000    0.85520   1.00
C1       0.75000    0.85520    0.75000   1.00
C1       0.64480    0.75000    0.75000   1.00
C1       0.85520    0.75000    0.75000   1.00
C1       0.75000    0.64480    0.75000   1.00
C1       0.75000    0.75000    0.64480   1.00
O1       0.25000    0.25000    0.75000   1.00
Zn1      0.21720    0.28280    0.78280   1.00
Zn1      0.28280    0.21720    0.78280   1.00
Zn1      0.28280    0.28280    0.71720   1.00
Zn1      0.21720    0.21720    0.71720   1.00
O2       0.22650    0.27350    0.83820   1.00
O2       0.22650    0.33820    0.77350   1.00
O2       0.16180    0.27350    0.77350   1.00
O2       0.27350    0.22650    0.83820   1.00
O2       0.33820    0.22650    0.77350   1.00
O2       0.27350    0.16180    0.77350   1.00
O2       0.27350    0.33820    0.72650   1.00
O2       0.33820    0.27350    0.72650   1.00
O2       0.27350    0.27350    0.66180   1.00
O2       0.16180    0.22650    0.72650   1.00
O2       0.22650    0.16180    0.72650   1.00
O2       0.22650    0.22650    0.66180   1.00
C1       0.25000    0.25000    0.85520   1.00
C1       0.25000    0.35520    0.75000   1.00
C1       0.14480    0.25000    0.75000   1.00
C1       0.35520    0.25000    0.75000   1.00
C1       0.25000    0.14480    0.75000   1.00
C1       0.25000    0.25000    0.64480   1.00
O1       0.25000    0.75000    0.25000   1.00
Zn1      0.21720    0.78280    0.28280   1.00
Zn1      0.28280    0.71720    0.28280   1.00
Zn1      0.28280    0.78280    0.21720   1.00
Zn1      0.21720    0.71720    0.21720   1.00
O2       0.22650    0.77350    0.33820   1.00
O2       0.22650    0.83820    0.27350   1.00
O2       0.16180    0.77350    0.27350   1.00
O2       0.27350    0.72650    0.33820   1.00
O2       0.33820    0.72650    0.27350   1.00
O2       0.27350    0.66180    0.27350   1.00
O2       0.27350    0.83820    0.22650   1.00
O2       0.33820    0.77350    0.22650   1.00
O2       0.27350    0.77350    0.16180   1.00
O2       0.16180    0.72650    0.22650   1.00
O2       0.22650    0.66180    0.22650   1.00
O2       0.22650    0.72650    0.16180   1.00
C1       0.25000    0.75000    0.35520   1.00
C1       0.25000    0.85520    0.25000   1.00
C1       0.14480    0.75000    0.25000   1.00
C1       0.35520    0.75000    0.25000   1.00
C1       0.25000    0.64480    0.25000   1.00
C1       0.25000    0.75000    0.14480   1.00
O1       0.75000    0.25000    0.25000   1.00
Zn1      0.71720    0.28280    0.28280   1.00
Zn1      0.78280    0.21720    0.28280   1.00
Zn1      0.78280    0.28280    0.21720   1.00
Zn1      0.71720    0.21720    0.21720   1.00
O2       0.72650    0.27350    0.33820   1.00
O2       0.72650    0.33820    0.27350   1.00
O2       0.66180    0.27350    0.27350   1.00
O2       0.77350    0.22650    0.33820   1.00
O2       0.83820    0.22650    0.27350   1.00
O2       0.77350    0.16180    0.27350   1.00
O2       0.77350    0.33820    0.22650   1.00
O2       0.83820    0.27350    0.22650   1.00
O2       0.77350    0.27350    0.16180   1.00
O2       0.66180    0.22650    0.22650   1.00
O2       0.72650    0.16180    0.22650   1.00
O2       0.72650    0.22650    0.16180   1.00
C1       0.75000    0.25000    0.35520   1.00
C1       0.75000    0.35520    0.25000   1.00
C1       0.64480    0.25000    0.25000   1.00
C1       0.85520    0.25000    0.25000   1.00
C1       0.75000    0.14480    0.25000   1.00
C1       0.75000    0.25000    0.14480   1.00
O1       0.25000    0.25000    0.25000   1.00
Zn1      0.28280    0.21720    0.21720   1.00
Zn1      0.21720    0.28280    0.21720   1.00
Zn1      0.21720    0.21720    0.28280   1.00
Zn1      0.28280    0.28280    0.28280   1.00
O2       0.27350    0.22650    0.16180   1.00
O2       0.27350    0.16180    0.22650   1.00
O2       0.33820    0.22650    0.22650   1.00
O2       0.22650    0.27350    0.16180   1.00
O2       0.16180    0.27350    0.22650   1.00
O2       0.22650    0.33820    0.22650   1.00
O2       0.22650    0.16180    0.27350   1.00
O2       0.16180    0.22650    0.27350   1.00
O2       0.22650    0.22650    0.33820   1.00
O2       0.33820    0.27350    0.27350   1.00
O2       0.27350    0.33820    0.27350   1.00
O2       0.27350    0.27350    0.33820   1.00
C1       0.25000    0.25000    0.14480   1.00
C1       0.25000    0.14480    0.25000   1.00
C1       0.35520    0.25000    0.25000   1.00
C1       0.14480    0.25000    0.25000   1.00
C1       0.25000    0.35520    0.25000   1.00
C1       0.25000    0.25000    0.35520   1.00
O1       0.75000    0.75000    0.25000   1.00
Zn1      0.78280    0.71720    0.21720   1.00
Zn1      0.71720    0.78280    0.21720   1.00
Zn1      0.71720    0.71720    0.28280   1.00
Zn1      0.78280    0.78280    0.28280   1.00
O2       0.77350    0.72650    0.16180   1.00
O2       0.77350    0.66180    0.22650   1.00
O2       0.83820    0.72650    0.22650   1.00
O2       0.72650    0.77350    0.16180   1.00
O2       0.66180    0.77350    0.22650   1.00
O2       0.72650    0.83820    0.22650   1.00
O2       0.72650    0.66180    0.27350   1.00
O2       0.66180    0.72650    0.27350   1.00
O2       0.72650    0.72650    0.33820   1.00
O2       0.83820    0.77350    0.27350   1.00
O2       0.77350    0.83820    0.27350   1.00
O2       0.77350    0.77350    0.33820   1.00
C1       0.75000    0.75000    0.14480   1.00
C1       0.75000    0.64480    0.25000   1.00
C1       0.85520    0.75000    0.25000   1.00
C1       0.64480    0.75000    0.25000   1.00
C1       0.75000    0.85520    0.25000   1.00
C1       0.75000    0.75000    0.35520   1.00
O1       0.75000    0.25000    0.75000   1.00
Zn1      0.78280    0.21720    0.71720   1.00
Zn1      0.71720    0.28280    0.71720   1.00
Zn1      0.71720    0.21720    0.78280   1.00
Zn1      0.78280    0.28280    0.78280   1.00
O2       0.77350    0.22650    0.66180   1.00
O2       0.77350    0.16180    0.72650   1.00
O2       0.83820    0.22650    0.72650   1.00
O2       0.72650    0.27350    0.66180   1.00
O2       0.66180    0.27350    0.72650   1.00
O2       0.72650    0.33820    0.72650   1.00
O2       0.72650    0.16180    0.77350   1.00
O2       0.66180    0.22650    0.77350   1.00
O2       0.72650    0.22650    0.83820   1.00
O2       0.83820    0.27350    0.77350   1.00
O2       0.77350    0.33820    0.77350   1.00
O2       0.77350    0.27350    0.83820   1.00
C1       0.75000    0.25000    0.64480   1.00
C1       0.75000    0.14480    0.75000   1.00
C1       0.85520    0.25000    0.75000   1.00
C1       0.64480    0.25000    0.75000   1.00
C1       0.75000    0.35520    0.75000   1.00
C1       0.75000    0.25000    0.85520   1.00
O1       0.25000    0.75000    0.75000   1.00
Zn1      0.28280    0.71720    0.71720   1.00
Zn1      0.21720    0.78280    0.71720   1.00
Zn1      0.21720    0.71720    0.78280   1.00
Zn1      0.28280    0.78280    0.78280   1.00
O2       0.27350    0.72650    0.66180   1.00
O2       0.27350    0.66180    0.72650   1.00
O2       0.33820    0.72650    0.72650   1.00
O2       0.22650    0.77350    0.66180   1.00
O2       0.16180    0.77350    0.72650   1.00
O2       0.22650    0.83820    0.72650   1.00
O2       0.22650    0.66180    0.77350   1.00
O2       0.16180    0.72650    0.77350   1.00
O2       0.22650    0.72650    0.83820   1.00
O2       0.33820    0.77350    0.77350   1.00
O2       0.27350    0.83820    0.77350   1.00
O2       0.27350    0.77350    0.83820   1.00
C1       0.25000    0.75000    0.64480   1.00
C1       0.25000    0.64480    0.75000   1.00
C1       0.35520    0.75000    0.75000   1.00
C1       0.14480    0.75000    0.75000   1.00
C1       0.25000    0.85520    0.75000   1.00
C1       0.25000    0.75000    0.85520   1.00
O1       0.91500    0.91500    0.91500   1.00
Zn1      0.88220    0.94780    0.94780   1.00
Zn1      0.94780    0.88220    0.94780   1.00
Zn1      0.94780    0.94780    0.88220   1.00
Zn1      0.88220    0.88220    0.88220   1.00
O2       0.89150    0.93850    1.00320   1.00
O2       0.89150    1.00320    0.93850   1.00
O2       0.82680    0.93850    0.93850   1.00
O2       0.93850    0.89150    1.00320   1.00
O2       1.00320    0.89150    0.93850   1.00
O2       0.93850    0.82680    0.93850   1.00
O2       0.93850    1.00320    0.89150   1.00
O2       1.00320    0.93850    0.89150   1.00
O2       0.93850    0.93850    0.82680   1.00
O2       0.82680    0.89150    0.89150   1.00
O2       0.89150    0.82680    0.89150   1.00
O2       0.89150    0.89150    0.82680   1.00
C1       0.91500    0.91500    1.02020   1.00
C1       0.91500    1.02020    0.91500   1.00
C1       0.80980    0.91500    0.91500   1.00
C1       1.02020    0.91500    0.91500   1.00
C1       0.91500    0.80980    0.91500   1.00
C1       0.91500    0.91500    0.80980   1.00
O1       0.41500    0.41500    0.91500   1.00
Zn1      0.38220    0.44780    0.94780   1.00
Zn1      0.44780    0.38220    0.94780   1.00
Zn1      0.44780    0.44780    0.88220   1.00
Zn1      0.38220    0.38220    0.88220   1.00
O2       0.39150    0.43850    1.00320   1.00
O2       0.39150    0.50320    0.93850   1.00
O2       0.32680    0.43850    0.93850   1.00
O2       0.43850    0.39150    1.00320   1.00
O2       0.50320    0.39150    0.93850   1.00
O2       0.43850    0.32680    0.93850   1.00
O2       0.43850    0.50320    0.89150   1.00
O2       0.50320    0.43850    0.89150   1.00
O2       0.43850    0.43850    0.82680   1.00
O2       0.32680    0.39150    0.89150   1.00
O2       0.39150    0.32680    0.89150   1.00
O2       0.39150    0.39150    0.82680   1.00
C1       0.41500    0.41500    1.02020   1.00
C1       0.41500    0.52020    0.91500   1.00
C1       0.30980    0.41500    0.91500   1.00
C1       0.52020    0.41500    0.91500   1.00
C1       0.41500    0.30980    0.91500   1.00
C1       0.41500    0.41500    0.80980   1.00
O1       0.41500    0.91500    0.41500   1.00
Zn1      0.38220    0.94780    0.44780   1.00
Zn1      0.44780    0.88220    0.44780   1.00
Zn1      0.44780    0.94780    0.38220   1.00
Zn1      0.38220    0.88220    0.38220   1.00
O2       0.39150    0.93850    0.50320   1.00
O2       0.39150    1.00320    0.43850   1.00
O2       0.32680    0.93850    0.43850   1.00
O2       0.43850    0.89150    0.50320   1.00
O2       0.50320    0.89150    0.43850   1.00
O2       0.43850    0.82680    0.43850   1.00
O2       0.43850    1.00320    0.39150   1.00
O2       0.50320    0.93850    0.39150   1.00
O2       0.43850    0.93850    0.32680   1.00
O2       0.32680    0.89150    0.39150   1.00
O2       0.39150    0.82680    0.39150   1.00
O2       0.39150    0.89150    0.32680   1.00
C1       0.41500    0.91500    0.52020   1.00
C1       0.41500    1.02020    0.41500   1.00
C1       0.30980    0.91500    0.41500   1.00
C1       0.52020    0.91500    0.41500   1.00
C1       0.41500    0.80980    0.41500   1.00
C1       0.41500    0.91500    0.30980   1.00
O1       0.91500    0.41500    0.41500   1.00
Zn1      0.88220    0.44780    0.44780   1.00
Zn1      0.94780    0.38220    0.44780   1.00
Zn1      0.94780    0.44780    0.38220   1.00
Zn1      0.88220    0.38220    0.38220   1.00
O2       0.89150    0.43850    0.50320   1.00
O2       0.89150    0.50320    0.43850   1.00
O2       0.82680    0.43850    0.43850   1.00
O2       0.93850    0.39150    0.50320   1.00
O2       1.00320    0.39150    0.43850   1.00
O2       0.93850    0.32680    0.43850   1.00
O2       0.93850    0.50320    0.39150   1.00
O2       1.00320    0.43850    0.39150   1.00
O2       0.93850    0.43850    0.32680   1.00
O2       0.82680    0.39150    0.39150   1.00
O2       0.89150    0.32680    0.39150   1.00
O2       0.89150    0.39150    0.32680   1.00
C1       0.91500    0.41500    0.52020   1.00
C1       0.91500    0.52020    0.41500   1.00
C1       0.80980    0.41500    0.41500   1.00
C1       1.02020    0.41500    0.41500   1.00
C1       0.91500    0.30980    0.41500   1.00
C1       0.91500    0.41500    0.30980   1.00
O1       0.41500    0.41500    0.41500   1.00
Zn1      0.44780    0.38220    0.38220   1.00
Zn1      0.38220    0.44780    0.38220   1.00
Zn1      0.38220    0.38220    0.44780   1.00
Zn1      0.44780    0.44780    0.44780   1.00
O2       0.43850    0.39150    0.32680   1.00
O2       0.43850    0.32680    0.39150   1.00
O2       0.50320    0.39150    0.39150   1.00
O2       0.39150    0.43850    0.32680   1.00
O2       0.32680    0.43850    0.39150   1.00
O2       0.39150    0.50320    0.39150   1.00
O2       0.39150    0.32680    0.43850   1.00
O2       0.32680    0.39150    0.43850   1.00
O2       0.39150    0.39150    0.50320   1.00
O2       0.50320    0.43850    0.43850   1.00
O2       0.43850    0.50320    0.43850   1.00
O2       0.43850    0.43850    0.50320   1.00
C1       0.41500    0.41500    0.30980   1.00
C1       0.41500    0.30980    0.41500   1.00
C1       0.52020    0.41500    0.41500   1.00
C1       0.30980    0.41500    0.41500   1.00
C1       0.41500    0.52020    0.41500   1.00
C1       0.41500    0.41500    0.52020   1.00
O1       0.91500    0.91500    0.41500   1.00
Zn1      0.94780    0.88220    0.38220   1.00
Zn1      0.88220    0.94780    0.38220   1.00
Zn1      0.88220    0.88220    0.44780   1.00
Zn1      0.94780    0.94780    0.44780   1.00
O2       0.93850    0.89150    0.32680   1.00
O2       0.93850    0.82680    0.39150   1.00
O2       1.00320    0.89150    0.39150   1.00
O2       0.89150    0.93850    0.32680   1.00
O2       0.82680    0.93850    0.39150   1.00
O2       0.89150    1.00320    0.39150   1.00
O2       0.89150    0.82680    0.43850   1.00
O2       0.82680    0.89150    0.43850   1.00
O2       0.89150    0.89150    0.50320   1.00
O2       1.00320    0.93850    0.43850   1.00
O2       0.93850    1.00320    0.43850   1.00
O2       0.93850    0.93850    0.50320   1.00
C1       0.91500    0.91500    0.30980   1.00
C1       0.91500    0.80980    0.41500   1.00
C1       1.02020    0.91500    0.41500   1.00
C1       0.80980    0.91500    0.41500   1.00
C1       0.91500    1.02020    0.41500   1.00
C1       0.91500    0.91500    0.52020   1.00
O1       0.91500    0.41500    0.91500   1.00
Zn1      0.94780    0.38220    0.88220   1.00
Zn1      0.88220    0.44780    0.88220   1.00
Zn1      0.88220    0.38220    0.94780   1.00
Zn1      0.94780    0.44780    0.94780   1.00
O2       0.93850    0.39150    0.82680   1.00
O2       0.93850    0.32680    0.89150   1.00
O2       1.00320    0.39150    0.89150   1.00
O2       0.89150    0.43850    0.82680   1.00
O2       0.82680    0.43850    0.89150   1.00
O2       0.89150    0.50320    0.89150   1.00
O2       0.89150    0.32680    0.93850   1.00
O2       0.82680    0.39150    0.93850   1.00
O2       0.89150    0.39150    1.00320   1.00
O2       1.00320    0.43850    0.93850   1.00
O2       0.93850    0.50320    0.93850   1.00
O2       0.93850    0.43850    1.00320   1.00
C1       0.91500    0.41500    0.80980   1.00
C1       0.91500    0.30980    0.91500   1.00
C1       1.02020    0.41500    0.91500   1.00
C1       0.80980    0.41500    0.91500   1.00
C1       0.91500    0.52020    0.91500   1.00
C1       0.91500    0.41500    1.02020   1.00
O1       0.41500    0.91500    0.91500   1.00
Zn1      0.44780    0.88220    0.88220   1.00
Zn1      0.38220    0.94780    0.88220   1.00
Zn1      0.38220    0.88220    0.94780   1.00
Zn1      0.44780    0.94780    0.94780   1.00
O2       0.43850    0.89150    0.82680   1.00
O2       0.43850    0.82680    0.89150   1.00
O2       0.50320    0.89150    0.89150   1.00
O2       0.39150    0.93850    0.82680   1.00
O2       0.32680    0.93850    0.89150   1.00
O2       0.39150    1.00320    0.89150   1.00
O2       0.39150    0.82680    0.93850   1.00
O2       0.32680    0.89150    0.93850   1.00
O2       0.39150    0.89150    1.00320   1.00
O2       0.50320    0.93850    0.93850   1.00
O2       0.43850    1.00320    0.93850   1.00
O2       0.43850    0.93850    1.00320   1.00
C1       0.41500    0.91500    0.80980   1.00
C1       0.41500    0.80980    0.91500   1.00
C1       0.52020    0.91500    0.91500   1.00
C1       0.30980    0.91500    0.91500   1.00
C1       0.41500    1.02020    0.91500   1.00
C1       0.41500    0.91500    1.02020   1.00
C4       0.75031    0.75022    0.97915   1.00
C4       0.74969    0.74978    1.02085   1.00
C3       0.77982    0.73105    0.95751   1.00
C3       0.75950    0.71604    1.04252   1.00
C3       0.72081    0.76925    0.95738   1.00
C3       0.74001    0.78353    1.04259   1.00
C2       0.75009    0.74987    0.89482   1.00
C2       0.75009    0.74987    1.10518   1.00
C3a      0.77985    0.73080    0.91599   1.00
C3       0.75966    0.71616    1.08382   1.00
C3       0.72076    0.76903    0.91611   1.00
C3a      0.74013    0.78377    1.08403   1.00
H1       0.80317    0.71643    0.97294   1.00
H1       0.76678    0.68922    1.02750   1.00
C5       0.81187    0.71023    0.89410   1.00
H1       0.76731    0.68972    1.09933   1.00
H1       0.69749    0.78368    0.90056   1.00
C5       0.72950    0.82067    1.10535   1.00
H1       0.73335    0.81044    1.02747   1.00
H1       0.69707    0.78379    0.97230   1.00
H2       0.69872    0.82815    1.09837   1.00
H2       0.73128    0.81652    1.13747   1.00
N1       0.75546    0.85258    1.09395   1.00
C6       0.75863    0.86833    1.05810   1.00
C6       0.78028    0.87182    1.11757   1.00
C6       0.78594    0.89788    1.05873   1.00
C6       0.79971    0.90010    1.09656   1.00
H3       0.74212    0.85903    1.03281   1.00
H3       0.78419    0.86564    1.14831   1.00
H3       0.79480    0.91586    1.03436   1.00
H3       0.82146    0.92010    1.10758   1.00
H2       0.80625    0.71295    0.86228   1.00
H2       0.84069    0.72383    0.90001   1.00
N1       0.81337    0.66915    0.90523   1.00
C6       0.80768    0.63622    0.88078   1.00
C6       0.82111    0.65362    0.94285   1.00
C6       0.81175    0.60271    0.90277   1.00
C6       0.81998    0.61340    0.94091   1.00
H3       0.80111    0.63747    0.84992   1.00
H3       0.82657    0.67085    0.96876   1.00
H3       0.80891    0.57318    0.89205   1.00
H3       0.82462    0.59364    0.96505   1.00
C4       0.75022    0.97915    0.75031   1.00
C4       0.74978    1.02085    0.74969   1.00
C3       0.73105    0.95751    0.77982   1.00
C3       0.71604    1.04252    0.75950   1.00
C3       0.76925    0.95738    0.72081   1.00
C3       0.78353    1.04259    0.74001   1.00
C2       0.74987    0.89482    0.75009   1.00
C2       0.74987    1.10518    0.75009   1.00
C3a      0.73080    0.91599    0.77985   1.00
C3       0.71616    1.08382    0.75966   1.00
C3       0.76903    0.91611    0.72076   1.00
C3a      0.78377    1.08403    0.74013   1.00
H1       0.71643    0.97294    0.80317   1.00
H1       0.68922    1.02750    0.76678   1.00
C5       0.71023    0.89410    0.81187   1.00
H1       0.68972    1.09933    0.76731   1.00
H1       0.78368    0.90056    0.69749   1.00
C5       0.82067    1.10535    0.72950   1.00
H1       0.81044    1.02747    0.73335   1.00
H1       0.78379    0.97230    0.69707   1.00
H2       0.82815    1.09837    0.69872   1.00
H2       0.81652    1.13747    0.73128   1.00
N1       0.85258    1.09395    0.75546   1.00
C6       0.86833    1.05810    0.75863   1.00
C6       0.87182    1.11757    0.78028   1.00
C6       0.89788    1.05873    0.78594   1.00
C6       0.90010    1.09656    0.79971   1.00
H3       0.85903    1.03281    0.74212   1.00
H3       0.86564    1.14831    0.78419   1.00
H3       0.91586    1.03436    0.79480   1.00
H3       0.92010    1.10758    0.82146   1.00
H2       0.71295    0.86228    0.80625   1.00
H2       0.72383    0.90001    0.84069   1.00
N1       0.66915    0.90523    0.81337   1.00
C6       0.63622    0.88078    0.80768   1.00
C6       0.65362    0.94285    0.82111   1.00
C6       0.60271    0.90277    0.81175   1.00
C6       0.61340    0.94091    0.81998   1.00
H3       0.63747    0.84992    0.80111   1.00
H3       0.67085    0.96876    0.82657   1.00
H3       0.57318    0.89205    0.80891   1.00
H3       0.59364    0.96505    0.82462   1.00
C4       0.52085    0.75031    0.74978   1.00
C4       0.47915    0.74969    0.75022   1.00
C3       0.54249    0.77982    0.76895   1.00
C3       0.45748    0.75950    0.78396   1.00
C3       0.54262    0.72081    0.73075   1.00
C3       0.45741    0.74001    0.71647   1.00
C2       0.60518    0.75009    0.75013   1.00
C2       0.39482    0.75009    0.75013   1.00
C3a      0.58401    0.77985    0.76920   1.00
C3       0.41618    0.75966    0.78384   1.00
C3       0.58389    0.72076    0.73097   1.00
C3a      0.41597    0.74013    0.71623   1.00
H1       0.52706    0.80317    0.78357   1.00
H1       0.47250    0.76678    0.81078   1.00
C5       0.60590    0.81187    0.78977   1.00
H1       0.40067    0.76731    0.81028   1.00
H1       0.59944    0.69749    0.71632   1.00
C5       0.39465    0.72950    0.67933   1.00
H1       0.47253    0.73335    0.68956   1.00
H1       0.52770    0.69707    0.71621   1.00
H2       0.40163    0.69872    0.67185   1.00
H2       0.36253    0.73128    0.68348   1.00
N1       0.40605    0.75546    0.64742   1.00
C6       0.44190    0.75863    0.63167   1.00
C6       0.38243    0.78028    0.62818   1.00
C6       0.44127    0.78594    0.60212   1.00
C6       0.40344    0.79971    0.59990   1.00
H3       0.46719    0.74212    0.64097   1.00
H3       0.35169    0.78419    0.63436   1.00
H3       0.46564    0.79480    0.58414   1.00
H3       0.39242    0.82146    0.57990   1.00
H2       0.63772    0.80625    0.78705   1.00
H2       0.59999    0.84069    0.77617   1.00
N1       0.59477    0.81337    0.83085   1.00
C6       0.61922    0.80768    0.86378   1.00
C6       0.55715    0.82111    0.84638   1.00
C6       0.59723    0.81175    0.89729   1.00
C6       0.55909    0.81998    0.88660   1.00
H3       0.65008    0.80111    0.86253   1.00
H3       0.53124    0.82657    0.82915   1.00
H3       0.60795    0.80891    0.92682   1.00
H3       0.53495    0.82462    0.90636   1.00
C4       0.97915    0.75031    0.75022   1.00
C4       1.02085    0.74969    0.74978   1.00
C3       0.95751    0.77982    0.73105   1.00
C3       1.04252    0.75950    0.71604   1.00
C3       0.95738    0.72081    0.76925   1.00
C3       1.04259    0.74001    0.78353   1.00
C2       0.89482    0.75009    0.74987   1.00
C2       1.10518    0.75009    0.74987   1.00
C3a      0.91599    0.77985    0.73080   1.00
C3       1.08382    0.75966    0.71616   1.00
C3       0.91611    0.72076    0.76903   1.00
C3a      1.08403    0.74013    0.78377   1.00
H1       0.97294    0.80317    0.71643   1.00
H1       1.02750    0.76678    0.68922   1.00
C5       0.89410    0.81187    0.71023   1.00
H1       1.09933    0.76731    0.68972   1.00
H1       0.90056    0.69749    0.78368   1.00
C5       1.10535    0.72950    0.82067   1.00
H1       1.02747    0.73335    0.81044   1.00
H1       0.97230    0.69707    0.78379   1.00
H2       1.09837    0.69872    0.82815   1.00
H2       1.13747    0.73128    0.81652   1.00
N1       1.09395    0.75546    0.85258   1.00
C6       1.05810    0.75863    0.86833   1.00
C6       1.11757    0.78028    0.87182   1.00
C6       1.05873    0.78594    0.89788   1.00
C6       1.09656    0.79971    0.90010   1.00
H3       1.03281    0.74212    0.85903   1.00
H3       1.14831    0.78419    0.86564   1.00
H3       1.03436    0.79480    0.91586   1.00
H3       1.10758    0.82146    0.92010   1.00
H2       0.86228    0.80625    0.71295   1.00
H2       0.90001    0.84069    0.72383   1.00
N1       0.90523    0.81337    0.66915   1.00
C6       0.88078    0.80768    0.63622   1.00
C6       0.94285    0.82111    0.65362   1.00
C6       0.90277    0.81175    0.60271   1.00
C6       0.94091    0.81998    0.61340   1.00
H3       0.84992    0.80111    0.63747   1.00
H3       0.96876    0.82657    0.67085   1.00
H3       0.89205    0.80891    0.57318   1.00
H3       0.96505    0.82462    0.59364   1.00
C4       0.74978    0.52085    0.75031   1.00
C4       0.75022    0.47915    0.74969   1.00
C3       0.76895    0.54249    0.77982   1.00
C3       0.78396    0.45748    0.75950   1.00
C3       0.73075    0.54262    0.72081   1.00
C3       0.71647    0.45741    0.74001   1.00
C2       0.75013    0.60518    0.75009   1.00
C2       0.75013    0.39482    0.75009   1.00
C3a      0.76920    0.58401    0.77985   1.00
C3       0.78384    0.41618    0.75966   1.00
C3       0.73097    0.58389    0.72076   1.00
C3a      0.71623    0.41597    0.74013   1.00
H1       0.78357    0.52706    0.80317   1.00
H1       0.81078    0.47250    0.76678   1.00
C5       0.78977    0.60590    0.81187   1.00
H1       0.81028    0.40067    0.76731   1.00
H1       0.71632    0.59944    0.69749   1.00
C5       0.67933    0.39465    0.72950   1.00
H1       0.68956    0.47253    0.73335   1.00
H1       0.71621    0.52770    0.69707   1.00
H2       0.67185    0.40163    0.69872   1.00
H2       0.68348    0.36253    0.73128   1.00
N1       0.64742    0.40605    0.75546   1.00
C6       0.63167    0.44190    0.75863   1.00
C6       0.62818    0.38243    0.78028   1.00
C6       0.60212    0.44127    0.78594   1.00
C6       0.59990    0.40344    0.79971   1.00
H3       0.64097    0.46719    0.74212   1.00
H3       0.63436    0.35169    0.78419   1.00
H3       0.58414    0.46564    0.79480   1.00
H3       0.57990    0.39242    0.82146   1.00
H2       0.78705    0.63772    0.80625   1.00
H2       0.77617    0.59999    0.84069   1.00
N1       0.83085    0.59477    0.81337   1.00
C6       0.86378    0.61922    0.80768   1.00
C6       0.84638    0.55715    0.82111   1.00
C6       0.89729    0.59723    0.81175   1.00
C6       0.88660    0.55909    0.81998   1.00
H3       0.86253    0.65008    0.80111   1.00
H3       0.82915    0.53124    0.82657   1.00
H3       0.92682    0.60795    0.80891   1.00
H3       0.90636    0.53495    0.82462   1.00
C4       0.75031    0.74978    0.52085   1.00
C4       0.74969    0.75022    0.47915   1.00
C3       0.77982    0.76895    0.54249   1.00
C3       0.75950    0.78396    0.45748   1.00
C3       0.72081    0.73075    0.54262   1.00
C3       0.74001    0.71647    0.45741   1.00
C2       0.75009    0.75013    0.60518   1.00
C2       0.75009    0.75013    0.39482   1.00
C3a      0.77985    0.76920    0.58401   1.00
C3       0.75966    0.78384    0.41618   1.00
C3       0.72076    0.73097    0.58389   1.00
C3a      0.74013    0.71623    0.41597   1.00
H1       0.80317    0.78357    0.52706   1.00
H1       0.76678    0.81078    0.47250   1.00
C5       0.81187    0.78977    0.60590   1.00
H1       0.76731    0.81028    0.40067   1.00
H1       0.69749    0.71632    0.59944   1.00
C5       0.72950    0.67933    0.39465   1.00
H1       0.73335    0.68956    0.47253   1.00
H1       0.69707    0.71621    0.52770   1.00
H2       0.69872    0.67185    0.40163   1.00
H2       0.73128    0.68348    0.36253   1.00
N1       0.75546    0.64742    0.40605   1.00
C6       0.75863    0.63167    0.44190   1.00
C6       0.78028    0.62818    0.38243   1.00
C6       0.78594    0.60212    0.44127   1.00
C6       0.79971    0.59990    0.40344   1.00
H3       0.74212    0.64097    0.46719   1.00
H3       0.78419    0.63436    0.35169   1.00
H3       0.79480    0.58414    0.46564   1.00
H3       0.82146    0.57990    0.39242   1.00
H2       0.80625    0.78705    0.63772   1.00
H2       0.84069    0.77617    0.59999   1.00
N1       0.81337    0.83085    0.59477   1.00
C6       0.80768    0.86378    0.61922   1.00
C6       0.82111    0.84638    0.55715   1.00
C6       0.81175    0.89729    0.59723   1.00
C6       0.81998    0.88660    0.55909   1.00
H3       0.80111    0.86253    0.65008   1.00
H3       0.82657    0.82915    0.53124   1.00
H3       0.80891    0.92682    0.60795   1.00
H3       0.82462    0.90636    0.53495   1.00
C4       0.25031    0.25022    0.97915   1.00
C4       0.24969    0.24978    1.02085   1.00
C3       0.27982    0.23105    0.95751   1.00
C3       0.25950    0.21604    1.04252   1.00
C3       0.22081    0.26925    0.95738   1.00
C3       0.24001    0.28353    1.04259   1.00
C2       0.25009    0.24987    0.89482   1.00
C2       0.25009    0.24987    1.10518   1.00
C3a      0.27985    0.23080    0.91599   1.00
C3       0.25966    0.21616    1.08382   1.00
C3       0.22076    0.26903    0.91611   1.00
C3a      0.24013    0.28377    1.08403   1.00
H1       0.30317    0.21643    0.97294   1.00
H1       0.26678    0.18922    1.02750   1.00
C5       0.31187    0.21023    0.89410   1.00
H1       0.26731    0.18972    1.09933   1.00
H1       0.19749    0.28368    0.90056   1.00
C5       0.22950    0.32067    1.10535   1.00
H1       0.23335    0.31044    1.02747   1.00
H1       0.19707    0.28379    0.97230   1.00
H2       0.19872    0.32815    1.09837   1.00
H2       0.23128    0.31652    1.13747   1.00
N1       0.25546    0.35258    1.09395   1.00
C6       0.25863    0.36833    1.05810   1.00
C6       0.28028    0.37182    1.11757   1.00
C6       0.28594    0.39788    1.05873   1.00
C6       0.29971    0.40010    1.09656   1.00
H3       0.24212    0.35903    1.03281   1.00
H3       0.28419    0.36564    1.14831   1.00
H3       0.29480    0.41586    1.03436   1.00
H3       0.32146    0.42010    1.10758   1.00
H2       0.30625    0.21295    0.86228   1.00
H2       0.34069    0.22383    0.90001   1.00
N1       0.31337    0.16915    0.90523   1.00
C6       0.30768    0.13622    0.88078   1.00
C6       0.32111    0.15362    0.94285   1.00
C6       0.31175    0.10271    0.90277   1.00
C6       0.31998    0.11340    0.94091   1.00
H3       0.30111    0.13747    0.84992   1.00
H3       0.32657    0.17085    0.96876   1.00
H3       0.30891    0.07318    0.89205   1.00
H3       0.32462    0.09364    0.96505   1.00
C4       0.25022    0.47915    0.75031   1.00
C4       0.24978    0.52085    0.74969   1.00
C3       0.23105    0.45751    0.77982   1.00
C3       0.21604    0.54252    0.75950   1.00
C3       0.26925    0.45738    0.72081   1.00
C3       0.28353    0.54259    0.74001   1.00
C2       0.24987    0.39482    0.75009   1.00
C2       0.24987    0.60518    0.75009   1.00
C3a      0.23080    0.41599    0.77985   1.00
C3       0.21616    0.58382    0.75966   1.00
C3       0.26903    0.41611    0.72076   1.00
C3a      0.28377    0.58403    0.74013   1.00
H1       0.21643    0.47294    0.80317   1.00
H1       0.18922    0.52750    0.76678   1.00
C5       0.21023    0.39410    0.81187   1.00
H1       0.18972    0.59933    0.76731   1.00
H1       0.28368    0.40056    0.69749   1.00
C5       0.32067    0.60535    0.72950   1.00
H1       0.31044    0.52747    0.73335   1.00
H1       0.28379    0.47230    0.69707   1.00
H2       0.32815    0.59837    0.69872   1.00
H2       0.31652    0.63747    0.73128   1.00
N1       0.35258    0.59395    0.75546   1.00
C6       0.36833    0.55810    0.75863   1.00
C6       0.37182    0.61757    0.78028   1.00
C6       0.39788    0.55873    0.78594   1.00
C6       0.40010    0.59656    0.79971   1.00
H3       0.35903    0.53281    0.74212   1.00
H3       0.36564    0.64831    0.78419   1.00
H3       0.41586    0.53436    0.79480   1.00
H3       0.42010    0.60758    0.82146   1.00
H2       0.21295    0.36228    0.80625   1.00
H2       0.22383    0.40001    0.84069   1.00
N1       0.16915    0.40523    0.81337   1.00
C6       0.13622    0.38078    0.80768   1.00
C6       0.15362    0.44285    0.82111   1.00
C6       0.10271    0.40277    0.81175   1.00
C6       0.11340    0.44091    0.81998   1.00
H3       0.13747    0.34992    0.80111   1.00
H3       0.17085    0.46876    0.82657   1.00
H3       0.07318    0.39205    0.80891   1.00
H3       0.09364    0.46505    0.82462   1.00
C4       0.02085    0.25031    0.74978   1.00
C4       -0.02085   0.24969    0.75022   1.00
C3       0.04249    0.27982    0.76895   1.00
C3       -0.04252   0.25950    0.78396   1.00
C3       0.04262    0.22081    0.73075   1.00
C3       -0.04259   0.24001    0.71647   1.00
C2       0.10518    0.25009    0.75013   1.00
C2       -0.10518   0.25009    0.75013   1.00
C3a      0.08401    0.27985    0.76920   1.00
C3       -0.08382   0.25966    0.78384   1.00
C3       0.08389    0.22076    0.73097   1.00
C3a      -0.08403   0.24013    0.71623   1.00
H1       0.02706    0.30317    0.78357   1.00
H1       -0.02750   0.26678    0.81078   1.00
C5       0.10590    0.31187    0.78977   1.00
H1       -0.09933   0.26731    0.81028   1.00
H1       0.09944    0.19749    0.71632   1.00
C5       -0.10535   0.22950    0.67933   1.00
H1       -0.02747   0.23335    0.68956   1.00
H1       0.02770    0.19707    0.71621   1.00
H2       -0.09837   0.19872    0.67185   1.00
H2       -0.13747   0.23128    0.68348   1.00
N1       -0.09395   0.25546    0.64742   1.00
C6       -0.05810   0.25863    0.63167   1.00
C6       -0.11757   0.28028    0.62818   1.00
C6       -0.05873   0.28594    0.60212   1.00
C6       -0.09656   0.29971    0.59990   1.00
H3       -0.03281   0.24212    0.64097   1.00
H3       -0.14831   0.28419    0.63436   1.00
H3       -0.03436   0.29480    0.58414   1.00
H3       -0.10758   0.32146    0.57990   1.00
H2       0.13772    0.30625    0.78705   1.00
H2       0.09999    0.34069    0.77617   1.00
N1       0.09477    0.31337    0.83085   1.00
C6       0.11922    0.30768    0.86378   1.00
C6       0.05715    0.32111    0.84638   1.00
C6       0.09723    0.31175    0.89729   1.00
C6       0.05909    0.31998    0.88660   1.00
H3       0.15008    0.30111    0.86253   1.00
H3       0.03124    0.32657    0.82915   1.00
H3       0.10795    0.30891    0.92682   1.00
H3       0.03495    0.32462    0.90636   1.00
C4       0.47915    0.25031    0.75022   1.00
C4       0.52085    0.24969    0.74978   1.00
C3       0.45751    0.27982    0.73105   1.00
C3       0.54252    0.25950    0.71604   1.00
C3       0.45738    0.22081    0.76925   1.00
C3       0.54259    0.24001    0.78353   1.00
C2       0.39482    0.25009    0.74987   1.00
C2       0.60518    0.25009    0.74987   1.00
C3a      0.41599    0.27985    0.73080   1.00
C3       0.58382    0.25966    0.71616   1.00
C3       0.41611    0.22076    0.76903   1.00
C3a      0.58403    0.24013    0.78377   1.00
H1       0.47294    0.30317    0.71643   1.00
H1       0.52750    0.26678    0.68922   1.00
C5       0.39410    0.31187    0.71023   1.00
H1       0.59933    0.26731    0.68972   1.00
H1       0.40056    0.19749    0.78368   1.00
C5       0.60535    0.22950    0.82067   1.00
H1       0.52747    0.23335    0.81044   1.00
H1       0.47230    0.19707    0.78379   1.00
H2       0.59837    0.19872    0.82815   1.00
H2       0.63747    0.23128    0.81652   1.00
N1       0.59395    0.25546    0.85258   1.00
C6       0.55810    0.25863    0.86833   1.00
C6       0.61757    0.28028    0.87182   1.00
C6       0.55873    0.28594    0.89788   1.00
C6       0.59656    0.29971    0.90010   1.00
H3       0.53281    0.24212    0.85903   1.00
H3       0.64831    0.28419    0.86564   1.00
H3       0.53436    0.29480    0.91586   1.00
H3       0.60758    0.32146    0.92010   1.00
H2       0.36228    0.30625    0.71295   1.00
H2       0.40001    0.34069    0.72383   1.00
N1       0.40523    0.31337    0.66915   1.00
C6       0.38078    0.30768    0.63622   1.00
C6       0.44285    0.32111    0.65362   1.00
C6       0.40277    0.31175    0.60271   1.00
C6       0.44091    0.31998    0.61340   1.00
H3       0.34992    0.30111    0.63747   1.00
H3       0.46876    0.32657    0.67085   1.00
H3       0.39205    0.30891    0.57318   1.00
H3       0.46505    0.32462    0.59364   1.00
C4       0.24978    0.02085    0.75031   1.00
C4       0.25022    -0.02085   0.74969   1.00
C3       0.26895    0.04249    0.77982   1.00
C3       0.28396    -0.04252   0.75950   1.00
C3       0.23075    0.04262    0.72081   1.00
C3       0.21647    -0.04259   0.74001   1.00
C2       0.25013    0.10518    0.75009   1.00
C2       0.25013    -0.10518   0.75009   1.00
C3a      0.26920    0.08401    0.77985   1.00
C3       0.28384    -0.08382   0.75966   1.00
C3       0.23097    0.08389    0.72076   1.00
C3a      0.21623    -0.08403   0.74013   1.00
H1       0.28357    0.02706    0.80317   1.00
H1       0.31078    -0.02750   0.76678   1.00
C5       0.28977    0.10590    0.81187   1.00
H1       0.31028    -0.09933   0.76731   1.00
H1       0.21632    0.09944    0.69749   1.00
C5       0.17933    -0.10535   0.72950   1.00
H1       0.18956    -0.02747   0.73335   1.00
H1       0.21621    0.02770    0.69707   1.00
H2       0.17185    -0.09837   0.69872   1.00
H2       0.18348    -0.13747   0.73128   1.00
N1       0.14742    -0.09395   0.75546   1.00
C6       0.13167    -0.05810   0.75863   1.00
C6       0.12818    -0.11757   0.78028   1.00
C6       0.10212    -0.05873   0.78594   1.00
C6       0.09990    -0.09656   0.79971   1.00
H3       0.14097    -0.03281   0.74212   1.00
H3       0.13436    -0.14831   0.78419   1.00
H3       0.08414    -0.03436   0.79480   1.00
H3       0.07990    -0.10758   0.82146   1.00
H2       0.28705    0.13772    0.80625   1.00
H2       0.27617    0.09999    0.84069   1.00
N1       0.33085    0.09477    0.81337   1.00
C6       0.36378    0.11922    0.80768   1.00
C6       0.34638    0.05715    0.82111   1.00
C6       0.39729    0.09723    0.81175   1.00
C6       0.38660    0.05909    0.81998   1.00
H3       0.36253    0.15008    0.80111   1.00
H3       0.32915    0.03124    0.82657   1.00
H3       0.42682    0.10795    0.80891   1.00
H3       0.40636    0.03495    0.82462   1.00
C4       0.25031    0.24978    0.52085   1.00
C4       0.24969    0.25022    0.47915   1.00
C3       0.27982    0.26895    0.54249   1.00
C3       0.25950    0.28396    0.45748   1.00
C3       0.22081    0.23075    0.54262   1.00
C3       0.24001    0.21647    0.45741   1.00
C2       0.25009    0.25013    0.60518   1.00
C2       0.25009    0.25013    0.39482   1.00
C3a      0.27985    0.26920    0.58401   1.00
C3       0.25966    0.28384    0.41618   1.00
C3       0.22076    0.23097    0.58389   1.00
C3a      0.24013    0.21623    0.41597   1.00
H1       0.30317    0.28357    0.52706   1.00
H1       0.26678    0.31078    0.47250   1.00
C5       0.31187    0.28977    0.60590   1.00
H1       0.26731    0.31028    0.40067   1.00
H1       0.19749    0.21632    0.59944   1.00
C5       0.22950    0.17933    0.39465   1.00
H1       0.23335    0.18956    0.47253   1.00
H1       0.19707    0.21621    0.52770   1.00
H2       0.19872    0.17185    0.40163   1.00
H2       0.23128    0.18348    0.36253   1.00
N1       0.25546    0.14742    0.40605   1.00
C6       0.25863    0.13167    0.44190   1.00
C6       0.28028    0.12818    0.38243   1.00
C6       0.28594    0.10212    0.44127   1.00
C6       0.29971    0.09990    0.40344   1.00
H3       0.24212    0.14097    0.46719   1.00
H3       0.28419    0.13436    0.35169   1.00
H3       0.29480    0.08414    0.46564   1.00
H3       0.32146    0.07990    0.39242   1.00
H2       0.30625    0.28705    0.63772   1.00
H2       0.34069    0.27617    0.59999   1.00
N1       0.31337    0.33085    0.59477   1.00
C6       0.30768    0.36378    0.61922   1.00
C6       0.32111    0.34638    0.55715   1.00
C6       0.31175    0.39729    0.59723   1.00
C6       0.31998    0.38660    0.55909   1.00
H3       0.30111    0.36253    0.65008   1.00
H3       0.32657    0.32915    0.53124   1.00
H3       0.30891    0.42682    0.60795   1.00
H3       0.32462    0.40636    0.53495   1.00
C4       0.25031    0.75022    0.47915   1.00
C4       0.24969    0.74978    0.52085   1.00
C3       0.27982    0.73105    0.45751   1.00
C3       0.25950    0.71604    0.54252   1.00
C3       0.22081    0.76925    0.45738   1.00
C3       0.24001    0.78353    0.54259   1.00
C2       0.25009    0.74987    0.39482   1.00
C2       0.25009    0.74987    0.60518   1.00
C3a      0.27985    0.73080    0.41599   1.00
C3       0.25966    0.71616    0.58382   1.00
C3       0.22076    0.76903    0.41611   1.00
C3a      0.24013    0.78377    0.58403   1.00
H1       0.30317    0.71643    0.47294   1.00
H1       0.26678    0.68922    0.52750   1.00
C5       0.31187    0.71023    0.39410   1.00
H1       0.26731    0.68972    0.59933   1.00
H1       0.19749    0.78368    0.40056   1.00
C5       0.22950    0.82067    0.60535   1.00
H1       0.23335    0.81044    0.52747   1.00
H1       0.19707    0.78379    0.47230   1.00
H2       0.19872    0.82815    0.59837   1.00
H2       0.23128    0.81652    0.63747   1.00
N1       0.25546    0.85258    0.59395   1.00
C6       0.25863    0.86833    0.55810   1.00
C6       0.28028    0.87182    0.61757   1.00
C6       0.28594    0.89788    0.55873   1.00
C6       0.29971    0.90010    0.59656   1.00
H3       0.24212    0.85903    0.53281   1.00
H3       0.28419    0.86564    0.64831   1.00
H3       0.29480    0.91586    0.53436   1.00
H3       0.32146    0.92010    0.60758   1.00
H2       0.30625    0.71295    0.36228   1.00
H2       0.34069    0.72383    0.40001   1.00
N1       0.31337    0.66915    0.40523   1.00
C6       0.30768    0.63622    0.38078   1.00
C6       0.32111    0.65362    0.44285   1.00
C6       0.31175    0.60271    0.40277   1.00
C6       0.31998    0.61340    0.44091   1.00
H3       0.30111    0.63747    0.34992   1.00
H3       0.32657    0.67085    0.46876   1.00
H3       0.30891    0.57318    0.39205   1.00
H3       0.32462    0.59364    0.46505   1.00
C4       0.25022    0.97915    0.25031   1.00
C4       0.24978    1.02085    0.24969   1.00
C3       0.23105    0.95751    0.27982   1.00
C3       0.21604    1.04252    0.25950   1.00
C3       0.26925    0.95738    0.22081   1.00
C3       0.28353    1.04259    0.24001   1.00
C2       0.24987    0.89482    0.25009   1.00
C2       0.24987    1.10518    0.25009   1.00
C3a      0.23080    0.91599    0.27985   1.00
C3       0.21616    1.08382    0.25966   1.00
C3       0.26903    0.91611    0.22076   1.00
C3a      0.28377    1.08403    0.24013   1.00
H1       0.21643    0.97294    0.30317   1.00
H1       0.18922    1.02750    0.26678   1.00
C5       0.21023    0.89410    0.31187   1.00
H1       0.18972    1.09933    0.26731   1.00
H1       0.28368    0.90056    0.19749   1.00
C5       0.32067    1.10535    0.22950   1.00
H1       0.31044    1.02747    0.23335   1.00
H1       0.28379    0.97230    0.19707   1.00
H2       0.32815    1.09837    0.19872   1.00
H2       0.31652    1.13747    0.23128   1.00
N1       0.35258    1.09395    0.25546   1.00
C6       0.36833    1.05810    0.25863   1.00
C6       0.37182    1.11757    0.28028   1.00
C6       0.39788    1.05873    0.28594   1.00
C6       0.40010    1.09656    0.29971   1.00
H3       0.35903    1.03281    0.24212   1.00
H3       0.36564    1.14831    0.28419   1.00
H3       0.41586    1.03436    0.29480   1.00
H3       0.42010    1.10758    0.32146   1.00
H2       0.21295    0.86228    0.30625   1.00
H2       0.22383    0.90001    0.34069   1.00
N1       0.16915    0.90523    0.31337   1.00
C6       0.13622    0.88078    0.30768   1.00
C6       0.15362    0.94285    0.32111   1.00
C6       0.10271    0.90277    0.31175   1.00
C6       0.11340    0.94091    0.31998   1.00
H3       0.13747    0.84992    0.30111   1.00
H3       0.17085    0.96876    0.32657   1.00
H3       0.07318    0.89205    0.30891   1.00
H3       0.09364    0.96505    0.32462   1.00
C4       0.02085    0.75031    0.24978   1.00
C4       -0.02085   0.74969    0.25022   1.00
C3       0.04249    0.77982    0.26895   1.00
C3       -0.04252   0.75950    0.28396   1.00
C3       0.04262    0.72081    0.23075   1.00
C3       -0.04259   0.74001    0.21647   1.00
C2       0.10518    0.75009    0.25013   1.00
C2       -0.10518   0.75009    0.25013   1.00
C3a      0.08401    0.77985    0.26920   1.00
C3       -0.08382   0.75966    0.28384   1.00
C3       0.08389    0.72076    0.23097   1.00
C3a      -0.08403   0.74013    0.21623   1.00
H1       0.02706    0.80317    0.28357   1.00
H1       -0.02750   0.76678    0.31078   1.00
C5       0.10590    0.81187    0.28977   1.00
H1       -0.09933   0.76731    0.31028   1.00
H1       0.09944    0.69749    0.21632   1.00
C5       -0.10535   0.72950    0.17933   1.00
H1       -0.02747   0.73335    0.18956   1.00
H1       0.02770    0.69707    0.21621   1.00
H2       -0.09837   0.69872    0.17185   1.00
H2       -0.13747   0.73128    0.18348   1.00
N1       -0.09395   0.75546    0.14742   1.00
C6       -0.05810   0.75863    0.13167   1.00
C6       -0.11757   0.78028    0.12818   1.00
C6       -0.05873   0.78594    0.10212   1.00
C6       -0.09656   0.79971    0.09990   1.00
H3       -0.03281   0.74212    0.14097   1.00
H3       -0.14831   0.78419    0.13436   1.00
H3       -0.03436   0.79480    0.08414   1.00
H3       -0.10758   0.82146    0.07990   1.00
H2       0.13772    0.80625    0.28705   1.00
H2       0.09999    0.84069    0.27617   1.00
N1       0.09477    0.81337    0.33085   1.00
C6       0.11922    0.80768    0.36378   1.00
C6       0.05715    0.82111    0.34638   1.00
C6       0.09723    0.81175    0.39729   1.00
C6       0.05909    0.81998    0.38660   1.00
H3       0.15008    0.80111    0.36253   1.00
H3       0.03124    0.82657    0.32915   1.00
H3       0.10795    0.80891    0.42682   1.00
H3       0.03495    0.82462    0.40636   1.00
C4       0.47915    0.75031    0.25022   1.00
C4       0.52085    0.74969    0.24978   1.00
C3       0.45751    0.77982    0.23105   1.00
C3       0.54252    0.75950    0.21604   1.00
C3       0.45738    0.72081    0.26925   1.00
C3       0.54259    0.74001    0.28353   1.00
C2       0.39482    0.75009    0.24987   1.00
C2       0.60518    0.75009    0.24987   1.00
C3a      0.41599    0.77985    0.23080   1.00
C3       0.58382    0.75966    0.21616   1.00
C3       0.41611    0.72076    0.26903   1.00
C3a      0.58403    0.74013    0.28377   1.00
H1       0.47294    0.80317    0.21643   1.00
H1       0.52750    0.76678    0.18922   1.00
C5       0.39410    0.81187    0.21023   1.00
H1       0.59933    0.76731    0.18972   1.00
H1       0.40056    0.69749    0.28368   1.00
C5       0.60535    0.72950    0.32067   1.00
H1       0.52747    0.73335    0.31044   1.00
H1       0.47230    0.69707    0.28379   1.00
H2       0.59837    0.69872    0.32815   1.00
H2       0.63747    0.73128    0.31652   1.00
N1       0.59395    0.75546    0.35258   1.00
C6       0.55810    0.75863    0.36833   1.00
C6       0.61757    0.78028    0.37182   1.00
C6       0.55873    0.78594    0.39788   1.00
C6       0.59656    0.79971    0.40010   1.00
H3       0.53281    0.74212    0.35903   1.00
H3       0.64831    0.78419    0.36564   1.00
H3       0.53436    0.79480    0.41586   1.00
H3       0.60758    0.82146    0.42010   1.00
H2       0.36228    0.80625    0.21295   1.00
H2       0.40001    0.84069    0.22383   1.00
N1       0.40523    0.81337    0.16915   1.00
C6       0.38078    0.80768    0.13622   1.00
C6       0.44285    0.82111    0.15362   1.00
C6       0.40277    0.81175    0.10271   1.00
C6       0.44091    0.81998    0.11340   1.00
H3       0.34992    0.80111    0.13747   1.00
H3       0.46876    0.82657    0.17085   1.00
H3       0.39205    0.80891    0.07318   1.00
H3       0.46505    0.82462    0.09364   1.00
C4       0.24978    0.52085    0.25031   1.00
C4       0.25022    0.47915    0.24969   1.00
C3       0.26895    0.54249    0.27982   1.00
C3       0.28396    0.45748    0.25950   1.00
C3       0.23075    0.54262    0.22081   1.00
C3       0.21647    0.45741    0.24001   1.00
C2       0.25013    0.60518    0.25009   1.00
C2       0.25013    0.39482    0.25009   1.00
C3a      0.26920    0.58401    0.27985   1.00
C3       0.28384    0.41618    0.25966   1.00
C3       0.23097    0.58389    0.22076   1.00
C3a      0.21623    0.41597    0.24013   1.00
H1       0.28357    0.52706    0.30317   1.00
H1       0.31078    0.47250    0.26678   1.00
C5       0.28977    0.60590    0.31187   1.00
H1       0.31028    0.40067    0.26731   1.00
H1       0.21632    0.59944    0.19749   1.00
C5       0.17933    0.39465    0.22950   1.00
H1       0.18956    0.47253    0.23335   1.00
H1       0.21621    0.52770    0.19707   1.00
H2       0.17185    0.40163    0.19872   1.00
H2       0.18348    0.36253    0.23128   1.00
N1       0.14742    0.40605    0.25546   1.00
C6       0.13167    0.44190    0.25863   1.00
C6       0.12818    0.38243    0.28028   1.00
C6       0.10212    0.44127    0.28594   1.00
C6       0.09990    0.40344    0.29971   1.00
H3       0.14097    0.46719    0.24212   1.00
H3       0.13436    0.35169    0.28419   1.00
H3       0.08414    0.46564    0.29480   1.00
H3       0.07990    0.39242    0.32146   1.00
H2       0.28705    0.63772    0.30625   1.00
H2       0.27617    0.59999    0.34069   1.00
N1       0.33085    0.59477    0.31337   1.00
C6       0.36378    0.61922    0.30768   1.00
C6       0.34638    0.55715    0.32111   1.00
C6       0.39729    0.59723    0.31175   1.00
C6       0.38660    0.55909    0.31998   1.00
H3       0.36253    0.65008    0.30111   1.00
H3       0.32915    0.53124    0.32657   1.00
H3       0.42682    0.60795    0.30891   1.00
H3       0.40636    0.53495    0.32462   1.00
C4       0.25031    0.74978    0.02085   1.00
C4       0.24969    0.75022    -0.02085   1.00
C3       0.27982    0.76895    0.04249   1.00
C3       0.25950    0.78396    -0.04252   1.00
C3       0.22081    0.73075    0.04262   1.00
C3       0.24001    0.71647    -0.04259   1.00
C2       0.25009    0.75013    0.10518   1.00
C2       0.25009    0.75013    -0.10518   1.00
C3a      0.27985    0.76920    0.08401   1.00
C3       0.25966    0.78384    -0.08382   1.00
C3       0.22076    0.73097    0.08389   1.00
C3a      0.24013    0.71623    -0.08403   1.00
H1       0.30317    0.78357    0.02706   1.00
H1       0.26678    0.81078    -0.02750   1.00
C5       0.31187    0.78977    0.10590   1.00
H1       0.26731    0.81028    -0.09933   1.00
H1       0.19749    0.71632    0.09944   1.00
C5       0.22950    0.67933    -0.10535   1.00
H1       0.23335    0.68956    -0.02747   1.00
H1       0.19707    0.71621    0.02770   1.00
H2       0.19872    0.67185    -0.09837   1.00
H2       0.23128    0.68348    -0.13747   1.00
N1       0.25546    0.64742    -0.09395   1.00
C6       0.25863    0.63167    -0.05810   1.00
C6       0.28028    0.62818    -0.11757   1.00
C6       0.28594    0.60212    -0.05873   1.00
C6       0.29971    0.59990    -0.09656   1.00
H3       0.24212    0.64097    -0.03281   1.00
H3       0.28419    0.63436    -0.14831   1.00
H3       0.29480    0.58414    -0.03436   1.00
H3       0.32146    0.57990    -0.10758   1.00
H2       0.30625    0.78705    0.13772   1.00
H2       0.34069    0.77617    0.09999   1.00
N1       0.31337    0.83085    0.09477   1.00
C6       0.30768    0.86378    0.11922   1.00
C6       0.32111    0.84638    0.05715   1.00
C6       0.31175    0.89729    0.09723   1.00
C6       0.31998    0.88660    0.05909   1.00
H3       0.30111    0.86253    0.15008   1.00
H3       0.32657    0.82915    0.03124   1.00
H3       0.30891    0.92682    0.10795   1.00
H3       0.32462    0.90636    0.03495   1.00
C4       0.75031    0.25022    0.47915   1.00
C4       0.74969    0.24978    0.52085   1.00
C3       0.77982    0.23105    0.45751   1.00
C3       0.75950    0.21604    0.54252   1.00
C3       0.72081    0.26925    0.45738   1.00
C3       0.74001    0.28353    0.54259   1.00
C2       0.75009    0.24987    0.39482   1.00
C2       0.75009    0.24987    0.60518   1.00
C3a      0.77985    0.23080    0.41599   1.00
C3       0.75966    0.21616    0.58382   1.00
C3       0.72076    0.26903    0.41611   1.00
C3a      0.74013    0.28377    0.58403   1.00
H1       0.80317    0.21643    0.47294   1.00
H1       0.76678    0.18922    0.52750   1.00
C5       0.81187    0.21023    0.39410   1.00
H1       0.76731    0.18972    0.59933   1.00
H1       0.69749    0.28368    0.40056   1.00
C5       0.72950    0.32067    0.60535   1.00
H1       0.73335    0.31044    0.52747   1.00
H1       0.69707    0.28379    0.47230   1.00
H2       0.69872    0.32815    0.59837   1.00
H2       0.73128    0.31652    0.63747   1.00
N1       0.75546    0.35258    0.59395   1.00
C6       0.75863    0.36833    0.55810   1.00
C6       0.78028    0.37182    0.61757   1.00
C6       0.78594    0.39788    0.55873   1.00
C6       0.79971    0.40010    0.59656   1.00
H3       0.74212    0.35903    0.53281   1.00
H3       0.78419    0.36564    0.64831   1.00
H3       0.79480    0.41586    0.53436   1.00
H3       0.82146    0.42010    0.60758   1.00
H2       0.80625    0.21295    0.36228   1.00
H2       0.84069    0.22383    0.40001   1.00
N1       0.81337    0.16915    0.40523   1.00
C6       0.80768    0.13622    0.38078   1.00
C6       0.82111    0.15362    0.44285   1.00
C6       0.81175    0.10271    0.40277   1.00
C6       0.81998    0.11340    0.44091   1.00
H3       0.80111    0.13747    0.34992   1.00
H3       0.82657    0.17085    0.46876   1.00
H3       0.80891    0.07318    0.39205   1.00
H3       0.82462    0.09364    0.46505   1.00
C4       0.75022    0.47915    0.25031   1.00
C4       0.74978    0.52085    0.24969   1.00
C3       0.73105    0.45751    0.27982   1.00
C3       0.71604    0.54252    0.25950   1.00
C3       0.76925    0.45738    0.22081   1.00
C3       0.78353    0.54259    0.24001   1.00
C2       0.74987    0.39482    0.25009   1.00
C2       0.74987    0.60518    0.25009   1.00
C3a      0.73080    0.41599    0.27985   1.00
C3       0.71616    0.58382    0.25966   1.00
C3       0.76903    0.41611    0.22076   1.00
C3a      0.78377    0.58403    0.24013   1.00
H1       0.71643    0.47294    0.30317   1.00
H1       0.68922    0.52750    0.26678   1.00
C5       0.71023    0.39410    0.31187   1.00
H1       0.68972    0.59933    0.26731   1.00
H1       0.78368    0.40056    0.19749   1.00
C5       0.82067    0.60535    0.22950   1.00
H1       0.81044    0.52747    0.23335   1.00
H1       0.78379    0.47230    0.19707   1.00
H2       0.82815    0.59837    0.19872   1.00
H2       0.81652    0.63747    0.23128   1.00
N1       0.85258    0.59395    0.25546   1.00
C6       0.86833    0.55810    0.25863   1.00
C6       0.87182    0.61757    0.28028   1.00
C6       0.89788    0.55873    0.28594   1.00
C6       0.90010    0.59656    0.29971   1.00
H3       0.85903    0.53281    0.24212   1.00
H3       0.86564    0.64831    0.28419   1.00
H3       0.91586    0.53436    0.29480   1.00
H3       0.92010    0.60758    0.32146   1.00
H2       0.71295    0.36228    0.30625   1.00
H2       0.72383    0.40001    0.34069   1.00
N1       0.66915    0.40523    0.31337   1.00
C6       0.63622    0.38078    0.30768   1.00
C6       0.65362    0.44285    0.32111   1.00
C6       0.60271    0.40277    0.31175   1.00
C6       0.61340    0.44091    0.31998   1.00
H3       0.63747    0.34992    0.30111   1.00
H3       0.67085    0.46876    0.32657   1.00
H3       0.57318    0.39205    0.30891   1.00
H3       0.59364    0.46505    0.32462   1.00
C4       0.52085    0.25031    0.24978   1.00
C4       0.47915    0.24969    0.25022   1.00
C3       0.54249    0.27982    0.26895   1.00
C3       0.45748    0.25950    0.28396   1.00
C3       0.54262    0.22081    0.23075   1.00
C3       0.45741    0.24001    0.21647   1.00
C2       0.60518    0.25009    0.25013   1.00
C2       0.39482    0.25009    0.25013   1.00
C3a      0.58401    0.27985    0.26920   1.00
C3       0.41618    0.25966    0.28384   1.00
C3       0.58389    0.22076    0.23097   1.00
C3a      0.41597    0.24013    0.21623   1.00
H1       0.52706    0.30317    0.28357   1.00
H1       0.47250    0.26678    0.31078   1.00
C5       0.60590    0.31187    0.28977   1.00
H1       0.40067    0.26731    0.31028   1.00
H1       0.59944    0.19749    0.21632   1.00
C5       0.39465    0.22950    0.17933   1.00
H1       0.47253    0.23335    0.18956   1.00
H1       0.52770    0.19707    0.21621   1.00
H2       0.40163    0.19872    0.17185   1.00
H2       0.36253    0.23128    0.18348   1.00
N1       0.40605    0.25546    0.14742   1.00
C6       0.44190    0.25863    0.13167   1.00
C6       0.38243    0.28028    0.12818   1.00
C6       0.44127    0.28594    0.10212   1.00
C6       0.40344    0.29971    0.09990   1.00
H3       0.46719    0.24212    0.14097   1.00
H3       0.35169    0.28419    0.13436   1.00
H3       0.46564    0.29480    0.08414   1.00
H3       0.39242    0.32146    0.07990   1.00
H2       0.63772    0.30625    0.28705   1.00
H2       0.59999    0.34069    0.27617   1.00
N1       0.59477    0.31337    0.33085   1.00
C6       0.61922    0.30768    0.36378   1.00
C6       0.55715    0.32111    0.34638   1.00
C6       0.59723    0.31175    0.39729   1.00
C6       0.55909    0.31998    0.38660   1.00
H3       0.65008    0.30111    0.36253   1.00
H3       0.53124    0.32657    0.32915   1.00
H3       0.60795    0.30891    0.42682   1.00
H3       0.53495    0.32462    0.40636   1.00
C4       0.97915    0.25031    0.25022   1.00
C4       1.02085    0.24969    0.24978   1.00
C3       0.95751    0.27982    0.23105   1.00
C3       1.04252    0.25950    0.21604   1.00
C3       0.95738    0.22081    0.26925   1.00
C3       1.04259    0.24001    0.28353   1.00
C2       0.89482    0.25009    0.24987   1.00
C2       1.10518    0.25009    0.24987   1.00
C3a      0.91599    0.27985    0.23080   1.00
C3       1.08382    0.25966    0.21616   1.00
C3       0.91611    0.22076    0.26903   1.00
C3a      1.08403    0.24013    0.28377   1.00
H1       0.97294    0.30317    0.21643   1.00
H1       1.02750    0.26678    0.18922   1.00
C5       0.89410    0.31187    0.21023   1.00
H1       1.09933    0.26731    0.18972   1.00
H1       0.90056    0.19749    0.28368   1.00
C5       1.10535    0.22950    0.32067   1.00
H1       1.02747    0.23335    0.31044   1.00
H1       0.97230    0.19707    0.28379   1.00
H2       1.09837    0.19872    0.32815   1.00
H2       1.13747    0.23128    0.31652   1.00
N1       1.09395    0.25546    0.35258   1.00
C6       1.05810    0.25863    0.36833   1.00
C6       1.11757    0.28028    0.37182   1.00
C6       1.05873    0.28594    0.39788   1.00
C6       1.09656    0.29971    0.40010   1.00
H3       1.03281    0.24212    0.35903   1.00
H3       1.14831    0.28419    0.36564   1.00
H3       1.03436    0.29480    0.41586   1.00
H3       1.10758    0.32146    0.42010   1.00
H2       0.86228    0.30625    0.21295   1.00
H2       0.90001    0.34069    0.22383   1.00
N1       0.90523    0.31337    0.16915   1.00
C6       0.88078    0.30768    0.13622   1.00
C6       0.94285    0.32111    0.15362   1.00
C6       0.90277    0.31175    0.10271   1.00
C6       0.94091    0.31998    0.11340   1.00
H3       0.84992    0.30111    0.13747   1.00
H3       0.96876    0.32657    0.17085   1.00
H3       0.89205    0.30891    0.07318   1.00
H3       0.96505    0.32462    0.09364   1.00
C4       0.74978    0.02085    0.25031   1.00
C4       0.75022    -0.02085   0.24969   1.00
C3       0.76895    0.04249    0.27982   1.00
C3       0.78396    -0.04252   0.25950   1.00
C3       0.73075    0.04262    0.22081   1.00
C3       0.71647    -0.04259   0.24001   1.00
C2       0.75013    0.10518    0.25009   1.00
C2       0.75013    -0.10518   0.25009   1.00
C3a      0.76920    0.08401    0.27985   1.00
C3       0.78384    -0.08382   0.25966   1.00
C3       0.73097    0.08389    0.22076   1.00
C3a      0.71623    -0.08403   0.24013   1.00
H1       0.78357    0.02706    0.30317   1.00
H1       0.81078    -0.02750   0.26678   1.00
C5       0.78977    0.10590    0.31187   1.00
H1       0.81028    -0.09933   0.26731   1.00
H1       0.71632    0.09944    0.19749   1.00
C5       0.67933    -0.10535   0.22950   1.00
H1       0.68956    -0.02747   0.23335   1.00
H1       0.71621    0.02770    0.19707   1.00
H2       0.67185    -0.09837   0.19872   1.00
H2       0.68348    -0.13747   0.23128   1.00
N1       0.64742    -0.09395   0.25546   1.00
C6       0.63167    -0.05810   0.25863   1.00
C6       0.62818    -0.11757   0.28028   1.00
C6       0.60212    -0.05873   0.28594   1.00
C6       0.59990    -0.09656   0.29971   1.00
H3       0.64097    -0.03281   0.24212   1.00
H3       0.63436    -0.14831   0.28419   1.00
H3       0.58414    -0.03436   0.29480   1.00
H3       0.57990    -0.10758   0.32146   1.00
H2       0.78705    0.13772    0.30625   1.00
H2       0.77617    0.09999    0.34069   1.00
N1       0.83085    0.09477    0.31337   1.00
C6       0.86378    0.11922    0.30768   1.00
C6       0.84638    0.05715    0.32111   1.00
C6       0.89729    0.09723    0.31175   1.00
C6       0.88660    0.05909    0.31998   1.00
H3       0.86253    0.15008    0.30111   1.00
H3       0.82915    0.03124    0.32657   1.00
H3       0.92682    0.10795    0.30891   1.00
H3       0.90636    0.03495    0.32462   1.00
C4       0.75031    0.24978    0.02085   1.00
C4       0.74969    0.25022    -0.02085   1.00
C3       0.77982    0.26895    0.04249   1.00
C3       0.75950    0.28396    -0.04252   1.00
C3       0.72081    0.23075    0.04262   1.00
C3       0.74001    0.21647    -0.04259   1.00
C2       0.75009    0.25013    0.10518   1.00
C2       0.75009    0.25013    -0.10518   1.00
C3a      0.77985    0.26920    0.08401   1.00
C3       0.75966    0.28384    -0.08382   1.00
C3       0.72076    0.23097    0.08389   1.00
C3a      0.74013    0.21623    -0.08403   1.00
H1       0.80317    0.28357    0.02706   1.00
H1       0.76678    0.31078    -0.02750   1.00
C5       0.81187    0.28977    0.10590   1.00
H1       0.76731    0.31028    -0.09933   1.00
H1       0.69749    0.21632    0.09944   1.00
C5       0.72950    0.17933    -0.10535   1.00
H1       0.73335    0.18956    -0.02747   1.00
H1       0.69707    0.21621    0.02770   1.00
H2       0.69872    0.17185    -0.09837   1.00
H2       0.73128    0.18348    -0.13747   1.00
N1       0.75546    0.14742    -0.09395   1.00
C6       0.75863    0.13167    -0.05810   1.00
C6       0.78028    0.12818    -0.11757   1.00
C6       0.78594    0.10212    -0.05873   1.00
C6       0.79971    0.09990    -0.09656   1.00
H3       0.74212    0.14097    -0.03281   1.00
H3       0.78419    0.13436    -0.14831   1.00
H3       0.79480    0.08414    -0.03436   1.00
H3       0.82146    0.07990    -0.10758   1.00
H2       0.80625    0.28705    0.13772   1.00
H2       0.84069    0.27617    0.09999   1.00
N1       0.81337    0.33085    0.09477   1.00
C6       0.80768    0.36378    0.11922   1.00
C6       0.82111    0.34638    0.05715   1.00
C6       0.81175    0.39729    0.09723   1.00
C6       0.81998    0.38660    0.05909   1.00
H3       0.80111    0.36253    0.15008   1.00
H3       0.82657    0.32915    0.03124   1.00
H3       0.80891    0.42682    0.10795   1.00
H3       0.82462    0.40636    0.03495   1.00
C4       0.91531    0.91522    1.14415   1.00
C4       0.91469    0.91478    1.18585   1.00
C3       0.94482    0.89605    1.12251   1.00
C3       0.92450    0.88104    1.20752   1.00
C3       0.88581    0.93425    1.12238   1.00
C3       0.90501    0.94853    1.20759   1.00
C2       0.91509    0.91487    1.05982   1.00
C2       0.91509    0.91487    1.27018   1.00
C3a      0.94485    0.89580    1.08099   1.00
C3       0.92466    0.88116    1.24882   1.00
C3       0.88576    0.93403    1.08111   1.00
C3a      0.90513    0.94877    1.24903   1.00
H1       0.96817    0.88143    1.13794   1.00
H1       0.93178    0.85422    1.19250   1.00
C5       0.97687    0.87523    1.05910   1.00
H1       0.93231    0.85472    1.26433   1.00
H1       0.86249    0.94868    1.06556   1.00
C5       0.89450    0.98567    1.27035   1.00
H1       0.89835    0.97544    1.19247   1.00
H1       0.86207    0.94879    1.13730   1.00
H2       0.86372    0.99315    1.26337   1.00
H2       0.89628    0.98152    1.30247   1.00
N1       0.92046    1.01758    1.25895   1.00
C6       0.92363    1.03333    1.22310   1.00
C6       0.94528    1.03682    1.28257   1.00
C6       0.95094    1.06288    1.22373   1.00
C6       0.96471    1.06510    1.26156   1.00
H3       0.90712    1.02403    1.19781   1.00
H3       0.94919    1.03064    1.31331   1.00
H3       0.95980    1.08086    1.19936   1.00
H3       0.98646    1.08510    1.27258   1.00
H2       0.97125    0.87795    1.02728   1.00
H2       1.00569    0.88883    1.06501   1.00
N1       0.97837    0.83415    1.07023   1.00
C6       0.97268    0.80122    1.04578   1.00
C6       0.98611    0.81862    1.10785   1.00
C6       0.97675    0.76771    1.06777   1.00
C6       0.98498    0.77840    1.10591   1.00
H3       0.96611    0.80247    1.01492   1.00
H3       0.99157    0.83585    1.13376   1.00
H3       0.97391    0.73818    1.05705   1.00
H3       0.98962    0.75864    1.13005   1.00
C4       0.91522    1.14415    0.91531   1.00
C4       0.91478    1.18585    0.91469   1.00
C3       0.89605    1.12251    0.94482   1.00
C3       0.88104    1.20752    0.92450   1.00
C3       0.93425    1.12238    0.88581   1.00
C3       0.94853    1.20759    0.90501   1.00
C2       0.91487    1.05982    0.91509   1.00
C2       0.91487    1.27018    0.91509   1.00
C3a      0.89580    1.08099    0.94485   1.00
C3       0.88116    1.24882    0.92466   1.00
C3       0.93403    1.08111    0.88576   1.00
C3a      0.94877    1.24903    0.90513   1.00
H1       0.88143    1.13794    0.96817   1.00
H1       0.85422    1.19250    0.93178   1.00
C5       0.87523    1.05910    0.97687   1.00
H1       0.85472    1.26433    0.93231   1.00
H1       0.94868    1.06556    0.86249   1.00
C5       0.98567    1.27035    0.89450   1.00
H1       0.97544    1.19247    0.89835   1.00
H1       0.94879    1.13730    0.86207   1.00
H2       0.99315    1.26337    0.86372   1.00
H2       0.98152    1.30247    0.89628   1.00
N1       1.01758    1.25895    0.92046   1.00
C6       1.03333    1.22310    0.92363   1.00
C6       1.03682    1.28257    0.94528   1.00
C6       1.06288    1.22373    0.95094   1.00
C6       1.06510    1.26156    0.96471   1.00
H3       1.02403    1.19781    0.90712   1.00
H3       1.03064    1.31331    0.94919   1.00
H3       1.08086    1.19936    0.95980   1.00
H3       1.08510    1.27258    0.98646   1.00
H2       0.87795    1.02728    0.97125   1.00
H2       0.88883    1.06501    1.00569   1.00
N1       0.83415    1.07023    0.97837   1.00
C6       0.80122    1.04578    0.97268   1.00
C6       0.81862    1.10785    0.98611   1.00
C6       0.76771    1.06777    0.97675   1.00
C6       0.77840    1.10591    0.98498   1.00
H3       0.80247    1.01492    0.96611   1.00
H3       0.83585    1.13376    0.99157   1.00
H3       0.73818    1.05705    0.97391   1.00
H3       0.75864    1.13005    0.98962   1.00
C4       0.68585    0.91531    0.91478   1.00
C4       0.64415    0.91469    0.91522   1.00
C3       0.70749    0.94482    0.93395   1.00
C3       0.62248    0.92450    0.94896   1.00
C3       0.70762    0.88581    0.89575   1.00
C3       0.62241    0.90501    0.88147   1.00
C2       0.77018    0.91509    0.91513   1.00
C2       0.55982    0.91509    0.91513   1.00
C3a      0.74901    0.94485    0.93420   1.00
C3       0.58118    0.92466    0.94884   1.00
C3       0.74889    0.88576    0.89597   1.00
C3a      0.58097    0.90513    0.88123   1.00
H1       0.69206    0.96817    0.94857   1.00
H1       0.63750    0.93178    0.97578   1.00
C5       0.77090    0.97687    0.95477   1.00
H1       0.56567    0.93231    0.97528   1.00
H1       0.76444    0.86249    0.88132   1.00
C5       0.55965    0.89450    0.84433   1.00
H1       0.63753    0.89835    0.85456   1.00
H1       0.69270    0.86207    0.88121   1.00
H2       0.56663    0.86372    0.83685   1.00
H2       0.52753    0.89628    0.84848   1.00
N1       0.57105    0.92046    0.81242   1.00
C6       0.60690    0.92363    0.79667   1.00
C6       0.54743    0.94528    0.79318   1.00
C6       0.60627    0.95094    0.76712   1.00
C6       0.56844    0.96471    0.76490   1.00
H3       0.63219    0.90712    0.80597   1.00
H3       0.51669    0.94919    0.79936   1.00
H3       0.63064    0.95980    0.74914   1.00
H3       0.55742    0.98646    0.74490   1.00
H2       0.80272    0.97125    0.95205   1.00
H2       0.76499    1.00569    0.94117   1.00
N1       0.75977    0.97837    0.99585   1.00
C6       0.78422    0.97268    1.02878   1.00
C6       0.72215    0.98611    1.01138   1.00
C6       0.76223    0.97675    1.06229   1.00
C6       0.72409    0.98498    1.05160   1.00
H3       0.81508    0.96611    1.02753   1.00
H3       0.69624    0.99157    0.99415   1.00
H3       0.77295    0.97391    1.09182   1.00
H3       0.69995    0.98962    1.07136   1.00
C4       1.14415    0.91531    0.91522   1.00
C4       1.18585    0.91469    0.91478   1.00
C3       1.12251    0.94482    0.89605   1.00
C3       1.20752    0.92450    0.88104   1.00
C3       1.12238    0.88581    0.93425   1.00
C3       1.20759    0.90501    0.94853   1.00
C2       1.05982    0.91509    0.91487   1.00
C2       1.27018    0.91509    0.91487   1.00
C3a      1.08099    0.94485    0.89580   1.00
C3       1.24882    0.92466    0.88116   1.00
C3       1.08111    0.88576    0.93403   1.00
C3a      1.24903    0.90513    0.94877   1.00
H1       1.13794    0.96817    0.88143   1.00
H1       1.19250    0.93178    0.85422   1.00
C5       1.05910    0.97687    0.87523   1.00
H1       1.26433    0.93231    0.85472   1.00
H1       1.06556    0.86249    0.94868   1.00
C5       1.27035    0.89450    0.98567   1.00
H1       1.19247    0.89835    0.97544   1.00
H1       1.13730    0.86207    0.94879   1.00
H2       1.26337    0.86372    0.99315   1.00
H2       1.30247    0.89628    0.98152   1.00
N1       1.25895    0.92046    1.01758   1.00
C6       1.22310    0.92363    1.03333   1.00
C6       1.28257    0.94528    1.03682   1.00
C6       1.22373    0.95094    1.06288   1.00
C6       1.26156    0.96471    1.06510   1.00
H3       1.19781    0.90712    1.02403   1.00
H3       1.31331    0.94919    1.03064   1.00
H3       1.19936    0.95980    1.08086   1.00
H3       1.27258    0.98646    1.08510   1.00
H2       1.02728    0.97125    0.87795   1.00
H2       1.06501    1.00569    0.88883   1.00
N1       1.07023    0.97837    0.83415   1.00
C6       1.04578    0.97268    0.80122   1.00
C6       1.10785    0.98611    0.81862   1.00
C6       1.06777    0.97675    0.76771   1.00
C6       1.10591    0.98498    0.77840   1.00
H3       1.01492    0.96611    0.80247   1.00
H3       1.13376    0.99157    0.83585   1.00
H3       1.05705    0.97391    0.73818   1.00
H3       1.13005    0.98962    0.75864   1.00
C4       0.91478    0.68585    0.91531   1.00
C4       0.91522    0.64415    0.91469   1.00
C3       0.93395    0.70749    0.94482   1.00
C3       0.94896    0.62248    0.92450   1.00
C3       0.89575    0.70762    0.88581   1.00
C3       0.88147    0.62241    0.90501   1.00
C2       0.91513    0.77018    0.91509   1.00
C2       0.91513    0.55982    0.91509   1.00
C3a      0.93420    0.74901    0.94485   1.00
C3       0.94884    0.58118    0.92466   1.00
C3       0.89597    0.74889    0.88576   1.00
C3a      0.88123    0.58097    0.90513   1.00
H1       0.94857    0.69206    0.96817   1.00
H1       0.97578    0.63750    0.93178   1.00
C5       0.95477    0.77090    0.97687   1.00
H1       0.97528    0.56567    0.93231   1.00
H1       0.88132    0.76444    0.86249   1.00
C5       0.84433    0.55965    0.89450   1.00
H1       0.85456    0.63753    0.89835   1.00
H1       0.88121    0.69270    0.86207   1.00
H2       0.83685    0.56663    0.86372   1.00
H2       0.84848    0.52753    0.89628   1.00
N1       0.81242    0.57105    0.92046   1.00
C6       0.79667    0.60690    0.92363   1.00
C6       0.79318    0.54743    0.94528   1.00
C6       0.76712    0.60627    0.95094   1.00
C6       0.76490    0.56844    0.96471   1.00
H3       0.80597    0.63219    0.90712   1.00
H3       0.79936    0.51669    0.94919   1.00
H3       0.74914    0.63064    0.95980   1.00
H3       0.74490    0.55742    0.98646   1.00
H2       0.95205    0.80272    0.97125   1.00
H2       0.94117    0.76499    1.00569   1.00
N1       0.99585    0.75977    0.97837   1.00
C6       1.02878    0.78422    0.97268   1.00
C6       1.01138    0.72215    0.98611   1.00
C6       1.06229    0.76223    0.97675   1.00
C6       1.05160    0.72409    0.98498   1.00
H3       1.02753    0.81508    0.96611   1.00
H3       0.99415    0.69624    0.99157   1.00
H3       1.09182    0.77295    0.97391   1.00
H3       1.07136    0.69995    0.98962   1.00
C4       0.91531    0.91478    0.68585   1.00
C4       0.91469    0.91522    0.64415   1.00
C3       0.94482    0.93395    0.70749   1.00
C3       0.92450    0.94896    0.62248   1.00
C3       0.88581    0.89575    0.70762   1.00
C3       0.90501    0.88147    0.62241   1.00
C2       0.91509    0.91513    0.77018   1.00
C2       0.91509    0.91513    0.55982   1.00
C3a      0.94485    0.93420    0.74901   1.00
C3       0.92466    0.94884    0.58118   1.00
C3       0.88576    0.89597    0.74889   1.00
C3a      0.90513    0.88123    0.58097   1.00
H1       0.96817    0.94857    0.69206   1.00
H1       0.93178    0.97578    0.63750   1.00
C5       0.97687    0.95477    0.77090   1.00
H1       0.93231    0.97528    0.56567   1.00
H1       0.86249    0.88132    0.76444   1.00
C5       0.89450    0.84433    0.55965   1.00
H1       0.89835    0.85456    0.63753   1.00
H1       0.86207    0.88121    0.69270   1.00
H2       0.86372    0.83685    0.56663   1.00
H2       0.89628    0.84848    0.52753   1.00
N1       0.92046    0.81242    0.57105   1.00
C6       0.92363    0.79667    0.60690   1.00
C6       0.94528    0.79318    0.54743   1.00
C6       0.95094    0.76712    0.60627   1.00
C6       0.96471    0.76490    0.56844   1.00
H3       0.90712    0.80597    0.63219   1.00
H3       0.94919    0.79936    0.51669   1.00
H3       0.95980    0.74914    0.63064   1.00
H3       0.98646    0.74490    0.55742   1.00
H2       0.97125    0.95205    0.80272   1.00
H2       1.00569    0.94117    0.76499   1.00
N1       0.97837    0.99585    0.75977   1.00
C6       0.97268    1.02878    0.78422   1.00
C6       0.98611    1.01138    0.72215   1.00
C6       0.97675    1.06229    0.76223   1.00
C6       0.98498    1.05160    0.72409   1.00
H3       0.96611    1.02753    0.81508   1.00
H3       0.99157    0.99415    0.69624   1.00
H3       0.97391    1.09182    0.77295   1.00
H3       0.98962    1.07136    0.69995   1.00
C4       0.41531    0.41522    1.14415   1.00
C4       0.41469    0.41478    1.18585   1.00
C3       0.44482    0.39605    1.12251   1.00
C3       0.42450    0.38104    1.20752   1.00
C3       0.38581    0.43425    1.12238   1.00
C3       0.40501    0.44853    1.20759   1.00
C2       0.41509    0.41487    1.05982   1.00
C2       0.41509    0.41487    1.27018   1.00
C3a      0.44485    0.39580    1.08099   1.00
C3       0.42466    0.38116    1.24882   1.00
C3       0.38576    0.43403    1.08111   1.00
C3a      0.40513    0.44877    1.24903   1.00
H1       0.46817    0.38143    1.13794   1.00
H1       0.43178    0.35422    1.19250   1.00
C5       0.47687    0.37523    1.05910   1.00
H1       0.43231    0.35472    1.26433   1.00
H1       0.36249    0.44868    1.06556   1.00
C5       0.39450    0.48567    1.27035   1.00
H1       0.39835    0.47544    1.19247   1.00
H1       0.36207    0.44879    1.13730   1.00
H2       0.36372    0.49315    1.26337   1.00
H2       0.39628    0.48152    1.30247   1.00
N1       0.42046    0.51758    1.25895   1.00
C6       0.42363    0.53333    1.22310   1.00
C6       0.44528    0.53682    1.28257   1.00
C6       0.45094    0.56288    1.22373   1.00
C6       0.46471    0.56510    1.26156   1.00
H3       0.40712    0.52403    1.19781   1.00
H3       0.44919    0.53064    1.31331   1.00
H3       0.45980    0.58086    1.19936   1.00
H3       0.48646    0.58510    1.27258   1.00
H2       0.47125    0.37795    1.02728   1.00
H2       0.50569    0.38883    1.06501   1.00
N1       0.47837    0.33415    1.07023   1.00
C6       0.47268    0.30122    1.04578   1.00
C6       0.48611    0.31862    1.10785   1.00
C6       0.47675    0.26771    1.06777   1.00
C6       0.48498    0.27840    1.10591   1.00
H3       0.46611    0.30247    1.01492   1.00
H3       0.49157    0.33585    1.13376   1.00
H3       0.47391    0.23818    1.05705   1.00
H3       0.48962    0.25864    1.13005   1.00
C4       0.41522    0.64415    0.91531   1.00
C4       0.41478    0.68585    0.91469   1.00
C3       0.39605    0.62251    0.94482   1.00
C3       0.38104    0.70752    0.92450   1.00
C3       0.43425    0.62238    0.88581   1.00
C3       0.44853    0.70759    0.90501   1.00
C2       0.41487    0.55982    0.91509   1.00
C2       0.41487    0.77018    0.91509   1.00
C3a      0.39580    0.58099    0.94485   1.00
C3       0.38116    0.74882    0.92466   1.00
C3       0.43403    0.58111    0.88576   1.00
C3a      0.44877    0.74903    0.90513   1.00
H1       0.38143    0.63794    0.96817   1.00
H1       0.35422    0.69250    0.93178   1.00
C5       0.37523    0.55910    0.97687   1.00
H1       0.35472    0.76433    0.93231   1.00
H1       0.44868    0.56556    0.86249   1.00
C5       0.48567    0.77035    0.89450   1.00
H1       0.47544    0.69247    0.89835   1.00
H1       0.44879    0.63730    0.86207   1.00
H2       0.49315    0.76337    0.86372   1.00
H2       0.48152    0.80247    0.89628   1.00
N1       0.51758    0.75895    0.92046   1.00
C6       0.53333    0.72310    0.92363   1.00
C6       0.53682    0.78257    0.94528   1.00
C6       0.56288    0.72373    0.95094   1.00
C6       0.56510    0.76156    0.96471   1.00
H3       0.52403    0.69781    0.90712   1.00
H3       0.53064    0.81331    0.94919   1.00
H3       0.58086    0.69936    0.95980   1.00
H3       0.58510    0.77258    0.98646   1.00
H2       0.37795    0.52728    0.97125   1.00
H2       0.38883    0.56501    1.00569   1.00
N1       0.33415    0.57023    0.97837   1.00
C6       0.30122    0.54578    0.97268   1.00
C6       0.31862    0.60785    0.98611   1.00
C6       0.26771    0.56777    0.97675   1.00
C6       0.27840    0.60591    0.98498   1.00
H3       0.30247    0.51492    0.96611   1.00
H3       0.33585    0.63376    0.99157   1.00
H3       0.23818    0.55705    0.97391   1.00
H3       0.25864    0.63005    0.98962   1.00
C4       0.18585    0.41531    0.91478   1.00
C4       0.14415    0.41469    0.91522   1.00
C3       0.20749    0.44482    0.93395   1.00
C3       0.12248    0.42450    0.94896   1.00
C3       0.20762    0.38581    0.89575   1.00
C3       0.12241    0.40501    0.88147   1.00
C2       0.27018    0.41509    0.91513   1.00
C2       0.05982    0.41509    0.91513   1.00
C3a      0.24901    0.44485    0.93420   1.00
C3       0.08118    0.42466    0.94884   1.00
C3       0.24889    0.38576    0.89597   1.00
C3a      0.08097    0.40513    0.88123   1.00
H1       0.19206    0.46817    0.94857   1.00
H1       0.13750    0.43178    0.97578   1.00
C5       0.27090    0.47687    0.95477   1.00
H1       0.06567    0.43231    0.97528   1.00
H1       0.26444    0.36249    0.88132   1.00
C5       0.05965    0.39450    0.84433   1.00
H1       0.13753    0.39835    0.85456   1.00
H1       0.19270    0.36207    0.88121   1.00
H2       0.06663    0.36372    0.83685   1.00
H2       0.02753    0.39628    0.84848   1.00
N1       0.07105    0.42046    0.81242   1.00
C6       0.10690    0.42363    0.79667   1.00
C6       0.04743    0.44528    0.79318   1.00
C6       0.10627    0.45094    0.76712   1.00
C6       0.06844    0.46471    0.76490   1.00
H3       0.13219    0.40712    0.80597   1.00
H3       0.01669    0.44919    0.79936   1.00
H3       0.13064    0.45980    0.74914   1.00
H3       0.05742    0.48646    0.74490   1.00
H2       0.30272    0.47125    0.95205   1.00
H2       0.26499    0.50569    0.94117   1.00
N1       0.25977    0.47837    0.99585   1.00
C6       0.28422    0.47268    1.02878   1.00
C6       0.22215    0.48611    1.01138   1.00
C6       0.26223    0.47675    1.06229   1.00
C6       0.22409    0.48498    1.05160   1.00
H3       0.31508    0.46611    1.02753   1.00
H3       0.19624    0.49157    0.99415   1.00
H3       0.27295    0.47391    1.09182   1.00
H3       0.19995    0.48962    1.07136   1.00
C4       0.64415    0.41531    0.91522   1.00
C4       0.68585    0.41469    0.91478   1.00
C3       0.62251    0.44482    0.89605   1.00
C3       0.70752    0.42450    0.88104   1.00
C3       0.62238    0.38581    0.93425   1.00
C3       0.70759    0.40501    0.94853   1.00
C2       0.55982    0.41509    0.91487   1.00
C2       0.77018    0.41509    0.91487   1.00
C3a      0.58099    0.44485    0.89580   1.00
C3       0.74882    0.42466    0.88116   1.00
C3       0.58111    0.38576    0.93403   1.00
C3a      0.74903    0.40513    0.94877   1.00
H1       0.63794    0.46817    0.88143   1.00
H1       0.69250    0.43178    0.85422   1.00
C5       0.55910    0.47687    0.87523   1.00
H1       0.76433    0.43231    0.85472   1.00
H1       0.56556    0.36249    0.94868   1.00
C5       0.77035    0.39450    0.98567   1.00
H1       0.69247    0.39835    0.97544   1.00
H1       0.63730    0.36207    0.94879   1.00
H2       0.76337    0.36372    0.99315   1.00
H2       0.80247    0.39628    0.98152   1.00
N1       0.75895    0.42046    1.01758   1.00
C6       0.72310    0.42363    1.03333   1.00
C6       0.78257    0.44528    1.03682   1.00
C6       0.72373    0.45094    1.06288   1.00
C6       0.76156    0.46471    1.06510   1.00
H3       0.69781    0.40712    1.02403   1.00
H3       0.81331    0.44919    1.03064   1.00
H3       0.69936    0.45980    1.08086   1.00
H3       0.77258    0.48646    1.08510   1.00
H2       0.52728    0.47125    0.87795   1.00
H2       0.56501    0.50569    0.88883   1.00
N1       0.57023    0.47837    0.83415   1.00
C6       0.54578    0.47268    0.80122   1.00
C6       0.60785    0.48611    0.81862   1.00
C6       0.56777    0.47675    0.76771   1.00
C6       0.60591    0.48498    0.77840   1.00
H3       0.51492    0.46611    0.80247   1.00
H3       0.63376    0.49157    0.83585   1.00
H3       0.55705    0.47391    0.73818   1.00
H3       0.63005    0.48962    0.75864   1.00
C4       0.41478    0.18585    0.91531   1.00
C4       0.41522    0.14415    0.91469   1.00
C3       0.43395    0.20749    0.94482   1.00
C3       0.44896    0.12248    0.92450   1.00
C3       0.39575    0.20762    0.88581   1.00
C3       0.38147    0.12241    0.90501   1.00
C2       0.41513    0.27018    0.91509   1.00
C2       0.41513    0.05982    0.91509   1.00
C3a      0.43420    0.24901    0.94485   1.00
C3       0.44884    0.08118    0.92466   1.00
C3       0.39597    0.24889    0.88576   1.00
C3a      0.38123    0.08097    0.90513   1.00
H1       0.44857    0.19206    0.96817   1.00
H1       0.47578    0.13750    0.93178   1.00
C5       0.45477    0.27090    0.97687   1.00
H1       0.47528    0.06567    0.93231   1.00
H1       0.38132    0.26444    0.86249   1.00
C5       0.34433    0.05965    0.89450   1.00
H1       0.35456    0.13753    0.89835   1.00
H1       0.38121    0.19270    0.86207   1.00
H2       0.33685    0.06663    0.86372   1.00
H2       0.34848    0.02753    0.89628   1.00
N1       0.31242    0.07105    0.92046   1.00
C6       0.29667    0.10690    0.92363   1.00
C6       0.29318    0.04743    0.94528   1.00
C6       0.26712    0.10627    0.95094   1.00
C6       0.26490    0.06844    0.96471   1.00
H3       0.30597    0.13219    0.90712   1.00
H3       0.29936    0.01669    0.94919   1.00
H3       0.24914    0.13064    0.95980   1.00
H3       0.24490    0.05742    0.98646   1.00
H2       0.45205    0.30272    0.97125   1.00
H2       0.44117    0.26499    1.00569   1.00
N1       0.49585    0.25977    0.97837   1.00
C6       0.52878    0.28422    0.97268   1.00
C6       0.51138    0.22215    0.98611   1.00
C6       0.56229    0.26223    0.97675   1.00
C6       0.55160    0.22409    0.98498   1.00
H3       0.52753    0.31508    0.96611   1.00
H3       0.49415    0.19624    0.99157   1.00
H3       0.59182    0.27295    0.97391   1.00
H3       0.57136    0.19995    0.98962   1.00
C4       0.41531    0.41478    0.68585   1.00
C4       0.41469    0.41522    0.64415   1.00
C3       0.44482    0.43395    0.70749   1.00
C3       0.42450    0.44896    0.62248   1.00
C3       0.38581    0.39575    0.70762   1.00
C3       0.40501    0.38147    0.62241   1.00
C2       0.41509    0.41513    0.77018   1.00
C2       0.41509    0.41513    0.55982   1.00
C3a      0.44485    0.43420    0.74901   1.00
C3       0.42466    0.44884    0.58118   1.00
C3       0.38576    0.39597    0.74889   1.00
C3a      0.40513    0.38123    0.58097   1.00
H1       0.46817    0.44857    0.69206   1.00
H1       0.43178    0.47578    0.63750   1.00
C5       0.47687    0.45477    0.77090   1.00
H1       0.43231    0.47528    0.56567   1.00
H1       0.36249    0.38132    0.76444   1.00
C5       0.39450    0.34433    0.55965   1.00
H1       0.39835    0.35456    0.63753   1.00
H1       0.36207    0.38121    0.69270   1.00
H2       0.36372    0.33685    0.56663   1.00
H2       0.39628    0.34848    0.52753   1.00
N1       0.42046    0.31242    0.57105   1.00
C6       0.42363    0.29667    0.60690   1.00
C6       0.44528    0.29318    0.54743   1.00
C6       0.45094    0.26712    0.60627   1.00
C6       0.46471    0.26490    0.56844   1.00
H3       0.40712    0.30597    0.63219   1.00
H3       0.44919    0.29936    0.51669   1.00
H3       0.45980    0.24914    0.63064   1.00
H3       0.48646    0.24490    0.55742   1.00
H2       0.47125    0.45205    0.80272   1.00
H2       0.50569    0.44117    0.76499   1.00
N1       0.47837    0.49585    0.75977   1.00
C6       0.47268    0.52878    0.78422   1.00
C6       0.48611    0.51138    0.72215   1.00
C6       0.47675    0.56229    0.76223   1.00
C6       0.48498    0.55160    0.72409   1.00
H3       0.46611    0.52753    0.81508   1.00
H3       0.49157    0.49415    0.69624   1.00
H3       0.47391    0.59182    0.77295   1.00
H3       0.48962    0.57136    0.69995   1.00
C4       0.41531    0.91522    0.64415   1.00
C4       0.41469    0.91478    0.68585   1.00
C3       0.44482    0.89605    0.62251   1.00
C3       0.42450    0.88104    0.70752   1.00
C3       0.38581    0.93425    0.62238   1.00
C3       0.40501    0.94853    0.70759   1.00
C2       0.41509    0.91487    0.55982   1.00
C2       0.41509    0.91487    0.77018   1.00
C3a      0.44485    0.89580    0.58099   1.00
C3       0.42466    0.88116    0.74882   1.00
C3       0.38576    0.93403    0.58111   1.00
C3a      0.40513    0.94877    0.74903   1.00
H1       0.46817    0.88143    0.63794   1.00
H1       0.43178    0.85422    0.69250   1.00
C5       0.47687    0.87523    0.55910   1.00
H1       0.43231    0.85472    0.76433   1.00
H1       0.36249    0.94868    0.56556   1.00
C5       0.39450    0.98567    0.77035   1.00
H1       0.39835    0.97544    0.69247   1.00
H1       0.36207    0.94879    0.63730   1.00
H2       0.36372    0.99315    0.76337   1.00
H2       0.39628    0.98152    0.80247   1.00
N1       0.42046    1.01758    0.75895   1.00
C6       0.42363    1.03333    0.72310   1.00
C6       0.44528    1.03682    0.78257   1.00
C6       0.45094    1.06288    0.72373   1.00
C6       0.46471    1.06510    0.76156   1.00
H3       0.40712    1.02403    0.69781   1.00
H3       0.44919    1.03064    0.81331   1.00
H3       0.45980    1.08086    0.69936   1.00
H3       0.48646    1.08510    0.77258   1.00
H2       0.47125    0.87795    0.52728   1.00
H2       0.50569    0.88883    0.56501   1.00
N1       0.47837    0.83415    0.57023   1.00
C6       0.47268    0.80122    0.54578   1.00
C6       0.48611    0.81862    0.60785   1.00
C6       0.47675    0.76771    0.56777   1.00
C6       0.48498    0.77840    0.60591   1.00
H3       0.46611    0.80247    0.51492   1.00
H3       0.49157    0.83585    0.63376   1.00
H3       0.47391    0.73818    0.55705   1.00
H3       0.48962    0.75864    0.63005   1.00
C4       0.41522    1.14415    0.41531   1.00
C4       0.41478    1.18585    0.41469   1.00
C3       0.39605    1.12251    0.44482   1.00
C3       0.38104    1.20752    0.42450   1.00
C3       0.43425    1.12238    0.38581   1.00
C3       0.44853    1.20759    0.40501   1.00
C2       0.41487    1.05982    0.41509   1.00
C2       0.41487    1.27018    0.41509   1.00
C3a      0.39580    1.08099    0.44485   1.00
C3       0.38116    1.24882    0.42466   1.00
C3       0.43403    1.08111    0.38576   1.00
C3a      0.44877    1.24903    0.40513   1.00
H1       0.38143    1.13794    0.46817   1.00
H1       0.35422    1.19250    0.43178   1.00
C5       0.37523    1.05910    0.47687   1.00
H1       0.35472    1.26433    0.43231   1.00
H1       0.44868    1.06556    0.36249   1.00
C5       0.48567    1.27035    0.39450   1.00
H1       0.47544    1.19247    0.39835   1.00
H1       0.44879    1.13730    0.36207   1.00
H2       0.49315    1.26337    0.36372   1.00
H2       0.48152    1.30247    0.39628   1.00
N1       0.51758    1.25895    0.42046   1.00
C6       0.53333    1.22310    0.42363   1.00
C6       0.53682    1.28257    0.44528   1.00
C6       0.56288    1.22373    0.45094   1.00
C6       0.56510    1.26156    0.46471   1.00
H3       0.52403    1.19781    0.40712   1.00
H3       0.53064    1.31331    0.44919   1.00
H3       0.58086    1.19936    0.45980   1.00
H3       0.58510    1.27258    0.48646   1.00
H2       0.37795    1.02728    0.47125   1.00
H2       0.38883    1.06501    0.50569   1.00
N1       0.33415    1.07023    0.47837   1.00
C6       0.30122    1.04578    0.47268   1.00
C6       0.31862    1.10785    0.48611   1.00
C6       0.26771    1.06777    0.47675   1.00
C6       0.27840    1.10591    0.48498   1.00
H3       0.30247    1.01492    0.46611   1.00
H3       0.33585    1.13376    0.49157   1.00
H3       0.23818    1.05705    0.47391   1.00
H3       0.25864    1.13005    0.48962   1.00
C4       0.18585    0.91531    0.41478   1.00
C4       0.14415    0.91469    0.41522   1.00
C3       0.20749    0.94482    0.43395   1.00
C3       0.12248    0.92450    0.44896   1.00
C3       0.20762    0.88581    0.39575   1.00
C3       0.12241    0.90501    0.38147   1.00
C2       0.27018    0.91509    0.41513   1.00
C2       0.05982    0.91509    0.41513   1.00
C3a      0.24901    0.94485    0.43420   1.00
C3       0.08118    0.92466    0.44884   1.00
C3       0.24889    0.88576    0.39597   1.00
C3a      0.08097    0.90513    0.38123   1.00
H1       0.19206    0.96817    0.44857   1.00
H1       0.13750    0.93178    0.47578   1.00
C5       0.27090    0.97687    0.45477   1.00
H1       0.06567    0.93231    0.47528   1.00
H1       0.26444    0.86249    0.38132   1.00
C5       0.05965    0.89450    0.34433   1.00
H1       0.13753    0.89835    0.35456   1.00
H1       0.19270    0.86207    0.38121   1.00
H2       0.06663    0.86372    0.33685   1.00
H2       0.02753    0.89628    0.34848   1.00
N1       0.07105    0.92046    0.31242   1.00
C6       0.10690    0.92363    0.29667   1.00
C6       0.04743    0.94528    0.29318   1.00
C6       0.10627    0.95094    0.26712   1.00
C6       0.06844    0.96471    0.26490   1.00
H3       0.13219    0.90712    0.30597   1.00
H3       0.01669    0.94919    0.29936   1.00
H3       0.13064    0.95980    0.24914   1.00
H3       0.05742    0.98646    0.24490   1.00
H2       0.30272    0.97125    0.45205   1.00
H2       0.26499    1.00569    0.44117   1.00
N1       0.25977    0.97837    0.49585   1.00
C6       0.28422    0.97268    0.52878   1.00
C6       0.22215    0.98611    0.51138   1.00
C6       0.26223    0.97675    0.56229   1.00
C6       0.22409    0.98498    0.55160   1.00
H3       0.31508    0.96611    0.52753   1.00
H3       0.19624    0.99157    0.49415   1.00
H3       0.27295    0.97391    0.59182   1.00
H3       0.19995    0.98962    0.57136   1.00
C4       0.64415    0.91531    0.41522   1.00
C4       0.68585    0.91469    0.41478   1.00
C3       0.62251    0.94482    0.39605   1.00
C3       0.70752    0.92450    0.38104   1.00
C3       0.62238    0.88581    0.43425   1.00
C3       0.70759    0.90501    0.44853   1.00
C2       0.55982    0.91509    0.41487   1.00
C2       0.77018    0.91509    0.41487   1.00
C3a      0.58099    0.94485    0.39580   1.00
C3       0.74882    0.92466    0.38116   1.00
C3       0.58111    0.88576    0.43403   1.00
C3a      0.74903    0.90513    0.44877   1.00
H1       0.63794    0.96817    0.38143   1.00
H1       0.69250    0.93178    0.35422   1.00
C5       0.55910    0.97687    0.37523   1.00
H1       0.76433    0.93231    0.35472   1.00
H1       0.56556    0.86249    0.44868   1.00
C5       0.77035    0.89450    0.48567   1.00
H1       0.69247    0.89835    0.47544   1.00
H1       0.63730    0.86207    0.44879   1.00
H2       0.76337    0.86372    0.49315   1.00
H2       0.80247    0.89628    0.48152   1.00
N1       0.75895    0.92046    0.51758   1.00
C6       0.72310    0.92363    0.53333   1.00
C6       0.78257    0.94528    0.53682   1.00
C6       0.72373    0.95094    0.56288   1.00
C6       0.76156    0.96471    0.56510   1.00
H3       0.69781    0.90712    0.52403   1.00
H3       0.81331    0.94919    0.53064   1.00
H3       0.69936    0.95980    0.58086   1.00
H3       0.77258    0.98646    0.58510   1.00
H2       0.52728    0.97125    0.37795   1.00
H2       0.56501    1.00569    0.38883   1.00
N1       0.57023    0.97837    0.33415   1.00
C6       0.54578    0.97268    0.30122   1.00
C6       0.60785    0.98611    0.31862   1.00
C6       0.56777    0.97675    0.26771   1.00
C6       0.60591    0.98498    0.27840   1.00
H3       0.51492    0.96611    0.30247   1.00
H3       0.63376    0.99157    0.33585   1.00
H3       0.55705    0.97391    0.23818   1.00
H3       0.63005    0.98962    0.25864   1.00
C4       0.41478    0.68585    0.41531   1.00
C4       0.41522    0.64415    0.41469   1.00
C3       0.43395    0.70749    0.44482   1.00
C3       0.44896    0.62248    0.42450   1.00
C3       0.39575    0.70762    0.38581   1.00
C3       0.38147    0.62241    0.40501   1.00
C2       0.41513    0.77018    0.41509   1.00
C2       0.41513    0.55982    0.41509   1.00
C3a      0.43420    0.74901    0.44485   1.00
C3       0.44884    0.58118    0.42466   1.00
C3       0.39597    0.74889    0.38576   1.00
C3a      0.38123    0.58097    0.40513   1.00
H1       0.44857    0.69206    0.46817   1.00
H1       0.47578    0.63750    0.43178   1.00
C5       0.45477    0.77090    0.47687   1.00
H1       0.47528    0.56567    0.43231   1.00
H1       0.38132    0.76444    0.36249   1.00
C5       0.34433    0.55965    0.39450   1.00
H1       0.35456    0.63753    0.39835   1.00
H1       0.38121    0.69270    0.36207   1.00
H2       0.33685    0.56663    0.36372   1.00
H2       0.34848    0.52753    0.39628   1.00
N1       0.31242    0.57105    0.42046   1.00
C6       0.29667    0.60690    0.42363   1.00
C6       0.29318    0.54743    0.44528   1.00
C6       0.26712    0.60627    0.45094   1.00
C6       0.26490    0.56844    0.46471   1.00
H3       0.30597    0.63219    0.40712   1.00
H3       0.29936    0.51669    0.44919   1.00
H3       0.24914    0.63064    0.45980   1.00
H3       0.24490    0.55742    0.48646   1.00
H2       0.45205    0.80272    0.47125   1.00
H2       0.44117    0.76499    0.50569   1.00
N1       0.49585    0.75977    0.47837   1.00
C6       0.52878    0.78422    0.47268   1.00
C6       0.51138    0.72215    0.48611   1.00
C6       0.56229    0.76223    0.47675   1.00
C6       0.55160    0.72409    0.48498   1.00
H3       0.52753    0.81508    0.46611   1.00
H3       0.49415    0.69624    0.49157   1.00
H3       0.59182    0.77295    0.47391   1.00
H3       0.57136    0.69995    0.48962   1.00
C4       0.41531    0.91478    0.18585   1.00
C4       0.41469    0.91522    0.14415   1.00
C3       0.44482    0.93395    0.20749   1.00
C3       0.42450    0.94896    0.12248   1.00
C3       0.38581    0.89575    0.20762   1.00
C3       0.40501    0.88147    0.12241   1.00
C2       0.41509    0.91513    0.27018   1.00
C2       0.41509    0.91513    0.05982   1.00
C3a      0.44485    0.93420    0.24901   1.00
C3       0.42466    0.94884    0.08118   1.00
C3       0.38576    0.89597    0.24889   1.00
C3a      0.40513    0.88123    0.08097   1.00
H1       0.46817    0.94857    0.19206   1.00
H1       0.43178    0.97578    0.13750   1.00
C5       0.47687    0.95477    0.27090   1.00
H1       0.43231    0.97528    0.06567   1.00
H1       0.36249    0.88132    0.26444   1.00
C5       0.39450    0.84433    0.05965   1.00
H1       0.39835    0.85456    0.13753   1.00
H1       0.36207    0.88121    0.19270   1.00
H2       0.36372    0.83685    0.06663   1.00
H2       0.39628    0.84848    0.02753   1.00
N1       0.42046    0.81242    0.07105   1.00
C6       0.42363    0.79667    0.10690   1.00
C6       0.44528    0.79318    0.04743   1.00
C6       0.45094    0.76712    0.10627   1.00
C6       0.46471    0.76490    0.06844   1.00
H3       0.40712    0.80597    0.13219   1.00
H3       0.44919    0.79936    0.01669   1.00
H3       0.45980    0.74914    0.13064   1.00
H3       0.48646    0.74490    0.05742   1.00
H2       0.47125    0.95205    0.30272   1.00
H2       0.50569    0.94117    0.26499   1.00
N1       0.47837    0.99585    0.25977   1.00
C6       0.47268    1.02878    0.28422   1.00
C6       0.48611    1.01138    0.22215   1.00
C6       0.47675    1.06229    0.26223   1.00
C6       0.48498    1.05160    0.22409   1.00
H3       0.46611    1.02753    0.31508   1.00
H3       0.49157    0.99415    0.19624   1.00
H3       0.47391    1.09182    0.27295   1.00
H3       0.48962    1.07136    0.19995   1.00
C4       0.91531    0.41522    0.64415   1.00
C4       0.91469    0.41478    0.68585   1.00
C3       0.94482    0.39605    0.62251   1.00
C3       0.92450    0.38104    0.70752   1.00
C3       0.88581    0.43425    0.62238   1.00
C3       0.90501    0.44853    0.70759   1.00
C2       0.91509    0.41487    0.55982   1.00
C2       0.91509    0.41487    0.77018   1.00
C3a      0.94485    0.39580    0.58099   1.00
C3       0.92466    0.38116    0.74882   1.00
C3       0.88576    0.43403    0.58111   1.00
C3a      0.90513    0.44877    0.74903   1.00
H1       0.96817    0.38143    0.63794   1.00
H1       0.93178    0.35422    0.69250   1.00
C5       0.97687    0.37523    0.55910   1.00
H1       0.93231    0.35472    0.76433   1.00
H1       0.86249    0.44868    0.56556   1.00
C5       0.89450    0.48567    0.77035   1.00
H1       0.89835    0.47544    0.69247   1.00
H1       0.86207    0.44879    0.63730   1.00
H2       0.86372    0.49315    0.76337   1.00
H2       0.89628    0.48152    0.80247   1.00
N1       0.92046    0.51758    0.75895   1.00
C6       0.92363    0.53333    0.72310   1.00
C6       0.94528    0.53682    0.78257   1.00
C6       0.95094    0.56288    0.72373   1.00
C6       0.96471    0.56510    0.76156   1.00
H3       0.90712    0.52403    0.69781   1.00
H3       0.94919    0.53064    0.81331   1.00
H3       0.95980    0.58086    0.69936   1.00
H3       0.98646    0.58510    0.77258   1.00
H2       0.97125    0.37795    0.52728   1.00
H2       1.00569    0.38883    0.56501   1.00
N1       0.97837    0.33415    0.57023   1.00
C6       0.97268    0.30122    0.54578   1.00
C6       0.98611    0.31862    0.60785   1.00
C6       0.97675    0.26771    0.56777   1.00
C6       0.98498    0.27840    0.60591   1.00
H3       0.96611    0.30247    0.51492   1.00
H3       0.99157    0.33585    0.63376   1.00
H3       0.97391    0.23818    0.55705   1.00
H3       0.98962    0.25864    0.63005   1.00
C4       0.91522    0.64415    0.41531   1.00
C4       0.91478    0.68585    0.41469   1.00
C3       0.89605    0.62251    0.44482   1.00
C3       0.88104    0.70752    0.42450   1.00
C3       0.93425    0.62238    0.38581   1.00
C3       0.94853    0.70759    0.40501   1.00
C2       0.91487    0.55982    0.41509   1.00
C2       0.91487    0.77018    0.41509   1.00
C3a      0.89580    0.58099    0.44485   1.00
C3       0.88116    0.74882    0.42466   1.00
C3       0.93403    0.58111    0.38576   1.00
C3a      0.94877    0.74903    0.40513   1.00
H1       0.88143    0.63794    0.46817   1.00
H1       0.85422    0.69250    0.43178   1.00
C5       0.87523    0.55910    0.47687   1.00
H1       0.85472    0.76433    0.43231   1.00
H1       0.94868    0.56556    0.36249   1.00
C5       0.98567    0.77035    0.39450   1.00
H1       0.97544    0.69247    0.39835   1.00
H1       0.94879    0.63730    0.36207   1.00
H2       0.99315    0.76337    0.36372   1.00
H2       0.98152    0.80247    0.39628   1.00
N1       1.01758    0.75895    0.42046   1.00
C6       1.03333    0.72310    0.42363   1.00
C6       1.03682    0.78257    0.44528   1.00
C6       1.06288    0.72373    0.45094   1.00
C6       1.06510    0.76156    0.46471   1.00
H3       1.02403    0.69781    0.40712   1.00
H3       1.03064    0.81331    0.44919   1.00
H3       1.08086    0.69936    0.45980   1.00
H3       1.08510    0.77258    0.48646   1.00
H2       0.87795    0.52728    0.47125   1.00
H2       0.88883    0.56501    0.50569   1.00
N1       0.83415    0.57023    0.47837   1.00
C6       0.80122    0.54578    0.47268   1.00
C6       0.81862    0.60785    0.48611   1.00
C6       0.76771    0.56777    0.47675   1.00
C6       0.77840    0.60591    0.48498   1.00
H3       0.80247    0.51492    0.46611   1.00
H3       0.83585    0.63376    0.49157   1.00
H3       0.73818    0.55705    0.47391   1.00
H3       0.75864    0.63005    0.48962   1.00
C4       0.68585    0.41531    0.41478   1.00
C4       0.64415    0.41469    0.41522   1.00
C3       0.70749    0.44482    0.43395   1.00
C3       0.62248    0.42450    0.44896   1.00
C3       0.70762    0.38581    0.39575   1.00
C3       0.62241    0.40501    0.38147   1.00
C2       0.77018    0.41509    0.41513   1.00
C2       0.55982    0.41509    0.41513   1.00
C3a      0.74901    0.44485    0.43420   1.00
C3       0.58118    0.42466    0.44884   1.00
C3       0.74889    0.38576    0.39597   1.00
C3a      0.58097    0.40513    0.38123   1.00
H1       0.69206    0.46817    0.44857   1.00
H1       0.63750    0.43178    0.47578   1.00
C5       0.77090    0.47687    0.45477   1.00
H1       0.56567    0.43231    0.47528   1.00
H1       0.76444    0.36249    0.38132   1.00
C5       0.55965    0.39450    0.34433   1.00
H1       0.63753    0.39835    0.35456   1.00
H1       0.69270    0.36207    0.38121   1.00
H2       0.56663    0.36372    0.33685   1.00
H2       0.52753    0.39628    0.34848   1.00
N1       0.57105    0.42046    0.31242   1.00
C6       0.60690    0.42363    0.29667   1.00
C6       0.54743    0.44528    0.29318   1.00
C6       0.60627    0.45094    0.26712   1.00
C6       0.56844    0.46471    0.26490   1.00
H3       0.63219    0.40712    0.30597   1.00
H3       0.51669    0.44919    0.29936   1.00
H3       0.63064    0.45980    0.24914   1.00
H3       0.55742    0.48646    0.24490   1.00
H2       0.80272    0.47125    0.45205   1.00
H2       0.76499    0.50569    0.44117   1.00
N1       0.75977    0.47837    0.49585   1.00
C6       0.78422    0.47268    0.52878   1.00
C6       0.72215    0.48611    0.51138   1.00
C6       0.76223    0.47675    0.56229   1.00
C6       0.72409    0.48498    0.55160   1.00
H3       0.81508    0.46611    0.52753   1.00
H3       0.69624    0.49157    0.49415   1.00
H3       0.77295    0.47391    0.59182   1.00
H3       0.69995    0.48962    0.57136   1.00
C4       1.14415    0.41531    0.41522   1.00
C4       1.18585    0.41469    0.41478   1.00
C3       1.12251    0.44482    0.39605   1.00
C3       1.20752    0.42450    0.38104   1.00
C3       1.12238    0.38581    0.43425   1.00
C3       1.20759    0.40501    0.44853   1.00
C2       1.05982    0.41509    0.41487   1.00
C2       1.27018    0.41509    0.41487   1.00
C3a      1.08099    0.44485    0.39580   1.00
C3       1.24882    0.42466    0.38116   1.00
C3       1.08111    0.38576    0.43403   1.00
C3a      1.24903    0.40513    0.44877   1.00
H1       1.13794    0.46817    0.38143   1.00
H1       1.19250    0.43178    0.35422   1.00
C5       1.05910    0.47687    0.37523   1.00
H1       1.26433    0.43231    0.35472   1.00
H1       1.06556    0.36249    0.44868   1.00
C5       1.27035    0.39450    0.48567   1.00
H1       1.19247    0.39835    0.47544   1.00
H1       1.13730    0.36207    0.44879   1.00
H2       1.26337    0.36372    0.49315   1.00
H2       1.30247    0.39628    0.48152   1.00
N1       1.25895    0.42046    0.51758   1.00
C6       1.22310    0.42363    0.53333   1.00
C6       1.28257    0.44528    0.53682   1.00
C6       1.22373    0.45094    0.56288   1.00
C6       1.26156    0.46471    0.56510   1.00
H3       1.19781    0.40712    0.52403   1.00
H3       1.31331    0.44919    0.53064   1.00
H3       1.19936    0.45980    0.58086   1.00
H3       1.27258    0.48646    0.58510   1.00
H2       1.02728    0.47125    0.37795   1.00
H2       1.06501    0.50569    0.38883   1.00
N1       1.07023    0.47837    0.33415   1.00
C6       1.04578    0.47268    0.30122   1.00
C6       1.10785    0.48611    0.31862   1.00
C6       1.06777    0.47675    0.26771   1.00
C6       1.10591    0.48498    0.27840   1.00
H3       1.01492    0.46611    0.30247   1.00
H3       1.13376    0.49157    0.33585   1.00
H3       1.05705    0.47391    0.23818   1.00
H3       1.13005    0.48962    0.25864   1.00
C4       0.91478    0.18585    0.41531   1.00
C4       0.91522    0.14415    0.41469   1.00
C3       0.93395    0.20749    0.44482   1.00
C3       0.94896    0.12248    0.42450   1.00
C3       0.89575    0.20762    0.38581   1.00
C3       0.88147    0.12241    0.40501   1.00
C2       0.91513    0.27018    0.41509   1.00
C2       0.91513    0.05982    0.41509   1.00
C3a      0.93420    0.24901    0.44485   1.00
C3       0.94884    0.08118    0.42466   1.00
C3       0.89597    0.24889    0.38576   1.00
C3a      0.88123    0.08097    0.40513   1.00
H1       0.94857    0.19206    0.46817   1.00
H1       0.97578    0.13750    0.43178   1.00
C5       0.95477    0.27090    0.47687   1.00
H1       0.97528    0.06567    0.43231   1.00
H1       0.88132    0.26444    0.36249   1.00
C5       0.84433    0.05965    0.39450   1.00
H1       0.85456    0.13753    0.39835   1.00
H1       0.88121    0.19270    0.36207   1.00
H2       0.83685    0.06663    0.36372   1.00
H2       0.84848    0.02753    0.39628   1.00
N1       0.81242    0.07105    0.42046   1.00
C6       0.79667    0.10690    0.42363   1.00
C6       0.79318    0.04743    0.44528   1.00
C6       0.76712    0.10627    0.45094   1.00
C6       0.76490    0.06844    0.46471   1.00
H3       0.80597    0.13219    0.40712   1.00
H3       0.79936    0.01669    0.44919   1.00
H3       0.74914    0.13064    0.45980   1.00
H3       0.74490    0.05742    0.48646   1.00
H2       0.95205    0.30272    0.47125   1.00
H2       0.94117    0.26499    0.50569   1.00
N1       0.99585    0.25977    0.47837   1.00
C6       1.02878    0.28422    0.47268   1.00
C6       1.01138    0.22215    0.48611   1.00
C6       1.06229    0.26223    0.47675   1.00
C6       1.05160    0.22409    0.48498   1.00
H3       1.02753    0.31508    0.46611   1.00
H3       0.99415    0.19624    0.49157   1.00
H3       1.09182    0.27295    0.47391   1.00
H3       1.07136    0.19995    0.48962   1.00
C4       0.91531    0.41478    0.18585   1.00
C4       0.91469    0.41522    0.14415   1.00
C3       0.94482    0.43395    0.20749   1.00
C3       0.92450    0.44896    0.12248   1.00
C3       0.88581    0.39575    0.20762   1.00
C3       0.90501    0.38147    0.12241   1.00
C2       0.91509    0.41513    0.27018   1.00
C2       0.91509    0.41513    0.05982   1.00
C3a      0.94485    0.43420    0.24901   1.00
C3       0.92466    0.44884    0.08118   1.00
C3       0.88576    0.39597    0.24889   1.00
C3a      0.90513    0.38123    0.08097   1.00
H1       0.96817    0.44857    0.19206   1.00
H1       0.93178    0.47578    0.13750   1.00
C5       0.97687    0.45477    0.27090   1.00
H1       0.93231    0.47528    0.06567   1.00
H1       0.86249    0.38132    0.26444   1.00
C5       0.89450    0.34433    0.05965   1.00
H1       0.89835    0.35456    0.13753   1.00
H1       0.86207    0.38121    0.19270   1.00
H2       0.86372    0.33685    0.06663   1.00
H2       0.89628    0.34848    0.02753   1.00
N1       0.92046    0.31242    0.07105   1.00
C6       0.92363    0.29667    0.10690   1.00
C6       0.94528    0.29318    0.04743   1.00
C6       0.95094    0.26712    0.10627   1.00
C6       0.96471    0.26490    0.06844   1.00
H3       0.90712    0.30597    0.13219   1.00
H3       0.94919    0.29936    0.01669   1.00
H3       0.95980    0.24914    0.13064   1.00
H3       0.98646    0.24490    0.05742   1.00
H2       0.97125    0.45205    0.30272   1.00
H2       1.00569    0.44117    0.26499   1.00
N1       0.97837    0.49585    0.25977   1.00
C6       0.97268    0.52878    0.28422   1.00
C6       0.98611    0.51138    0.22215   1.00
C6       0.97675    0.56229    0.26223   1.00
C6       0.98498    0.55160    0.22409   1.00
H3       0.96611    0.52753    0.31508   1.00
H3       0.99157    0.49415    0.19624   1.00
H3       0.97391    0.59182    0.27295   1.00
H3       0.98962    0.57136    0.19995   1.00
