data_IRMOF10_SG202_interpen_Ligand1cp_label_i.

_audit_creation_method             'generated by an auxiliary program of Tobunporous'

_symmetry_space_group_name_H-M     'P 1'
_symmetry_Int_Tables_number        1
_symmetry_cell_setting             triclinic

_cell_length_a                    34.2800
_cell_length_b                    34.2800
_cell_length_c                    34.2800
_cell_angle_alpha                 90.0000
_cell_angle_beta                  90.0000
_cell_angle_gamma                 90.0000

loop_
_atom_site_label
_atom_site_fract_x
_atom_site_fract_y
_atom_site_fract_z
_atom_site_occupancy
O1       0.75000    0.75000    0.75000   1.00
Zn1      0.71720    0.78280    0.78280   1.00
Zn1      0.78280    0.71720    0.78280   1.00
Zn1      0.78280    0.78280    0.71720   1.00
Zn1      0.71720    0.71720    0.71720   1.00
O2       0.72650    0.77350    0.83820   1.00
O2       0.72650    0.83820    0.77350   1.00
O2       0.66180    0.77350    0.77350   1.00
O2       0.77350    0.72650    0.83820   1.00
O2       0.83820    0.72650    0.77350   1.00
O2       0.77350    0.66180    0.77350   1.00
O2       0.77350    0.83820    0.72650   1.00
O2       0.83820    0.77350    0.72650   1.00
O2       0.77350    0.77350    0.66180   1.00
O2       0.66180    0.72650    0.72650   1.00
O2       0.72650    0.66180    0.72650   1.00
O2       0.72650    0.72650    0.66180   1.00
C1       0.75000    0.75000    0.85520   1.00
C1       0.75000    0.85520    0.75000   1.00
C1       0.64480    0.75000    0.75000   1.00
C1       0.85520    0.75000    0.75000   1.00
C1       0.75000    0.64480    0.75000   1.00
C1       0.75000    0.75000    0.64480   1.00
O1       0.25000    0.25000    0.75000   1.00
Zn1      0.21720    0.28280    0.78280   1.00
Zn1      0.28280    0.21720    0.78280   1.00
Zn1      0.28280    0.28280    0.71720   1.00
Zn1      0.21720    0.21720    0.71720   1.00
O2       0.22650    0.27350    0.83820   1.00
O2       0.22650    0.33820    0.77350   1.00
O2       0.16180    0.27350    0.77350   1.00
O2       0.27350    0.22650    0.83820   1.00
O2       0.33820    0.22650    0.77350   1.00
O2       0.27350    0.16180    0.77350   1.00
O2       0.27350    0.33820    0.72650   1.00
O2       0.33820    0.27350    0.72650   1.00
O2       0.27350    0.27350    0.66180   1.00
O2       0.16180    0.22650    0.72650   1.00
O2       0.22650    0.16180    0.72650   1.00
O2       0.22650    0.22650    0.66180   1.00
C1       0.25000    0.25000    0.85520   1.00
C1       0.25000    0.35520    0.75000   1.00
C1       0.14480    0.25000    0.75000   1.00
C1       0.35520    0.25000    0.75000   1.00
C1       0.25000    0.14480    0.75000   1.00
C1       0.25000    0.25000    0.64480   1.00
O1       0.25000    0.75000    0.25000   1.00
Zn1      0.21720    0.78280    0.28280   1.00
Zn1      0.28280    0.71720    0.28280   1.00
Zn1      0.28280    0.78280    0.21720   1.00
Zn1      0.21720    0.71720    0.21720   1.00
O2       0.22650    0.77350    0.33820   1.00
O2       0.22650    0.83820    0.27350   1.00
O2       0.16180    0.77350    0.27350   1.00
O2       0.27350    0.72650    0.33820   1.00
O2       0.33820    0.72650    0.27350   1.00
O2       0.27350    0.66180    0.27350   1.00
O2       0.27350    0.83820    0.22650   1.00
O2       0.33820    0.77350    0.22650   1.00
O2       0.27350    0.77350    0.16180   1.00
O2       0.16180    0.72650    0.22650   1.00
O2       0.22650    0.66180    0.22650   1.00
O2       0.22650    0.72650    0.16180   1.00
C1       0.25000    0.75000    0.35520   1.00
C1       0.25000    0.85520    0.25000   1.00
C1       0.14480    0.75000    0.25000   1.00
C1       0.35520    0.75000    0.25000   1.00
C1       0.25000    0.64480    0.25000   1.00
C1       0.25000    0.75000    0.14480   1.00
O1       0.75000    0.25000    0.25000   1.00
Zn1      0.71720    0.28280    0.28280   1.00
Zn1      0.78280    0.21720    0.28280   1.00
Zn1      0.78280    0.28280    0.21720   1.00
Zn1      0.71720    0.21720    0.21720   1.00
O2       0.72650    0.27350    0.33820   1.00
O2       0.72650    0.33820    0.27350   1.00
O2       0.66180    0.27350    0.27350   1.00
O2       0.77350    0.22650    0.33820   1.00
O2       0.83820    0.22650    0.27350   1.00
O2       0.77350    0.16180    0.27350   1.00
O2       0.77350    0.33820    0.22650   1.00
O2       0.83820    0.27350    0.22650   1.00
O2       0.77350    0.27350    0.16180   1.00
O2       0.66180    0.22650    0.22650   1.00
O2       0.72650    0.16180    0.22650   1.00
O2       0.72650    0.22650    0.16180   1.00
C1       0.75000    0.25000    0.35520   1.00
C1       0.75000    0.35520    0.25000   1.00
C1       0.64480    0.25000    0.25000   1.00
C1       0.85520    0.25000    0.25000   1.00
C1       0.75000    0.14480    0.25000   1.00
C1       0.75000    0.25000    0.14480   1.00
O1       0.25000    0.25000    0.25000   1.00
Zn1      0.28280    0.21720    0.21720   1.00
Zn1      0.21720    0.28280    0.21720   1.00
Zn1      0.21720    0.21720    0.28280   1.00
Zn1      0.28280    0.28280    0.28280   1.00
O2       0.27350    0.22650    0.16180   1.00
O2       0.27350    0.16180    0.22650   1.00
O2       0.33820    0.22650    0.22650   1.00
O2       0.22650    0.27350    0.16180   1.00
O2       0.16180    0.27350    0.22650   1.00
O2       0.22650    0.33820    0.22650   1.00
O2       0.22650    0.16180    0.27350   1.00
O2       0.16180    0.22650    0.27350   1.00
O2       0.22650    0.22650    0.33820   1.00
O2       0.33820    0.27350    0.27350   1.00
O2       0.27350    0.33820    0.27350   1.00
O2       0.27350    0.27350    0.33820   1.00
C1       0.25000    0.25000    0.14480   1.00
C1       0.25000    0.14480    0.25000   1.00
C1       0.35520    0.25000    0.25000   1.00
C1       0.14480    0.25000    0.25000   1.00
C1       0.25000    0.35520    0.25000   1.00
C1       0.25000    0.25000    0.35520   1.00
O1       0.75000    0.75000    0.25000   1.00
Zn1      0.78280    0.71720    0.21720   1.00
Zn1      0.71720    0.78280    0.21720   1.00
Zn1      0.71720    0.71720    0.28280   1.00
Zn1      0.78280    0.78280    0.28280   1.00
O2       0.77350    0.72650    0.16180   1.00
O2       0.77350    0.66180    0.22650   1.00
O2       0.83820    0.72650    0.22650   1.00
O2       0.72650    0.77350    0.16180   1.00
O2       0.66180    0.77350    0.22650   1.00
O2       0.72650    0.83820    0.22650   1.00
O2       0.72650    0.66180    0.27350   1.00
O2       0.66180    0.72650    0.27350   1.00
O2       0.72650    0.72650    0.33820   1.00
O2       0.83820    0.77350    0.27350   1.00
O2       0.77350    0.83820    0.27350   1.00
O2       0.77350    0.77350    0.33820   1.00
C1       0.75000    0.75000    0.14480   1.00
C1       0.75000    0.64480    0.25000   1.00
C1       0.85520    0.75000    0.25000   1.00
C1       0.64480    0.75000    0.25000   1.00
C1       0.75000    0.85520    0.25000   1.00
C1       0.75000    0.75000    0.35520   1.00
O1       0.75000    0.25000    0.75000   1.00
Zn1      0.78280    0.21720    0.71720   1.00
Zn1      0.71720    0.28280    0.71720   1.00
Zn1      0.71720    0.21720    0.78280   1.00
Zn1      0.78280    0.28280    0.78280   1.00
O2       0.77350    0.22650    0.66180   1.00
O2       0.77350    0.16180    0.72650   1.00
O2       0.83820    0.22650    0.72650   1.00
O2       0.72650    0.27350    0.66180   1.00
O2       0.66180    0.27350    0.72650   1.00
O2       0.72650    0.33820    0.72650   1.00
O2       0.72650    0.16180    0.77350   1.00
O2       0.66180    0.22650    0.77350   1.00
O2       0.72650    0.22650    0.83820   1.00
O2       0.83820    0.27350    0.77350   1.00
O2       0.77350    0.33820    0.77350   1.00
O2       0.77350    0.27350    0.83820   1.00
C1       0.75000    0.25000    0.64480   1.00
C1       0.75000    0.14480    0.75000   1.00
C1       0.85520    0.25000    0.75000   1.00
C1       0.64480    0.25000    0.75000   1.00
C1       0.75000    0.35520    0.75000   1.00
C1       0.75000    0.25000    0.85520   1.00
O1       0.25000    0.75000    0.75000   1.00
Zn1      0.28280    0.71720    0.71720   1.00
Zn1      0.21720    0.78280    0.71720   1.00
Zn1      0.21720    0.71720    0.78280   1.00
Zn1      0.28280    0.78280    0.78280   1.00
O2       0.27350    0.72650    0.66180   1.00
O2       0.27350    0.66180    0.72650   1.00
O2       0.33820    0.72650    0.72650   1.00
O2       0.22650    0.77350    0.66180   1.00
O2       0.16180    0.77350    0.72650   1.00
O2       0.22650    0.83820    0.72650   1.00
O2       0.22650    0.66180    0.77350   1.00
O2       0.16180    0.72650    0.77350   1.00
O2       0.22650    0.72650    0.83820   1.00
O2       0.33820    0.77350    0.77350   1.00
O2       0.27350    0.83820    0.77350   1.00
O2       0.27350    0.77350    0.83820   1.00
C1       0.25000    0.75000    0.64480   1.00
C1       0.25000    0.64480    0.75000   1.00
C1       0.35520    0.75000    0.75000   1.00
C1       0.14480    0.75000    0.75000   1.00
C1       0.25000    0.85520    0.75000   1.00
C1       0.25000    0.75000    0.85520   1.00
O1       0.91500    0.91500    0.91500   1.00
Zn1      0.88220    0.94780    0.94780   1.00
Zn1      0.94780    0.88220    0.94780   1.00
Zn1      0.94780    0.94780    0.88220   1.00
Zn1      0.88220    0.88220    0.88220   1.00
O2       0.89150    0.93850    1.00320   1.00
O2       0.89150    1.00320    0.93850   1.00
O2       0.82680    0.93850    0.93850   1.00
O2       0.93850    0.89150    1.00320   1.00
O2       1.00320    0.89150    0.93850   1.00
O2       0.93850    0.82680    0.93850   1.00
O2       0.93850    1.00320    0.89150   1.00
O2       1.00320    0.93850    0.89150   1.00
O2       0.93850    0.93850    0.82680   1.00
O2       0.82680    0.89150    0.89150   1.00
O2       0.89150    0.82680    0.89150   1.00
O2       0.89150    0.89150    0.82680   1.00
C1       0.91500    0.91500    1.02020   1.00
C1       0.91500    1.02020    0.91500   1.00
C1       0.80980    0.91500    0.91500   1.00
C1       1.02020    0.91500    0.91500   1.00
C1       0.91500    0.80980    0.91500   1.00
C1       0.91500    0.91500    0.80980   1.00
O1       0.41500    0.41500    0.91500   1.00
Zn1      0.38220    0.44780    0.94780   1.00
Zn1      0.44780    0.38220    0.94780   1.00
Zn1      0.44780    0.44780    0.88220   1.00
Zn1      0.38220    0.38220    0.88220   1.00
O2       0.39150    0.43850    1.00320   1.00
O2       0.39150    0.50320    0.93850   1.00
O2       0.32680    0.43850    0.93850   1.00
O2       0.43850    0.39150    1.00320   1.00
O2       0.50320    0.39150    0.93850   1.00
O2       0.43850    0.32680    0.93850   1.00
O2       0.43850    0.50320    0.89150   1.00
O2       0.50320    0.43850    0.89150   1.00
O2       0.43850    0.43850    0.82680   1.00
O2       0.32680    0.39150    0.89150   1.00
O2       0.39150    0.32680    0.89150   1.00
O2       0.39150    0.39150    0.82680   1.00
C1       0.41500    0.41500    1.02020   1.00
C1       0.41500    0.52020    0.91500   1.00
C1       0.30980    0.41500    0.91500   1.00
C1       0.52020    0.41500    0.91500   1.00
C1       0.41500    0.30980    0.91500   1.00
C1       0.41500    0.41500    0.80980   1.00
O1       0.41500    0.91500    0.41500   1.00
Zn1      0.38220    0.94780    0.44780   1.00
Zn1      0.44780    0.88220    0.44780   1.00
Zn1      0.44780    0.94780    0.38220   1.00
Zn1      0.38220    0.88220    0.38220   1.00
O2       0.39150    0.93850    0.50320   1.00
O2       0.39150    1.00320    0.43850   1.00
O2       0.32680    0.93850    0.43850   1.00
O2       0.43850    0.89150    0.50320   1.00
O2       0.50320    0.89150    0.43850   1.00
O2       0.43850    0.82680    0.43850   1.00
O2       0.43850    1.00320    0.39150   1.00
O2       0.50320    0.93850    0.39150   1.00
O2       0.43850    0.93850    0.32680   1.00
O2       0.32680    0.89150    0.39150   1.00
O2       0.39150    0.82680    0.39150   1.00
O2       0.39150    0.89150    0.32680   1.00
C1       0.41500    0.91500    0.52020   1.00
C1       0.41500    1.02020    0.41500   1.00
C1       0.30980    0.91500    0.41500   1.00
C1       0.52020    0.91500    0.41500   1.00
C1       0.41500    0.80980    0.41500   1.00
C1       0.41500    0.91500    0.30980   1.00
O1       0.91500    0.41500    0.41500   1.00
Zn1      0.88220    0.44780    0.44780   1.00
Zn1      0.94780    0.38220    0.44780   1.00
Zn1      0.94780    0.44780    0.38220   1.00
Zn1      0.88220    0.38220    0.38220   1.00
O2       0.89150    0.43850    0.50320   1.00
O2       0.89150    0.50320    0.43850   1.00
O2       0.82680    0.43850    0.43850   1.00
O2       0.93850    0.39150    0.50320   1.00
O2       1.00320    0.39150    0.43850   1.00
O2       0.93850    0.32680    0.43850   1.00
O2       0.93850    0.50320    0.39150   1.00
O2       1.00320    0.43850    0.39150   1.00
O2       0.93850    0.43850    0.32680   1.00
O2       0.82680    0.39150    0.39150   1.00
O2       0.89150    0.32680    0.39150   1.00
O2       0.89150    0.39150    0.32680   1.00
C1       0.91500    0.41500    0.52020   1.00
C1       0.91500    0.52020    0.41500   1.00
C1       0.80980    0.41500    0.41500   1.00
C1       1.02020    0.41500    0.41500   1.00
C1       0.91500    0.30980    0.41500   1.00
C1       0.91500    0.41500    0.30980   1.00
O1       0.41500    0.41500    0.41500   1.00
Zn1      0.44780    0.38220    0.38220   1.00
Zn1      0.38220    0.44780    0.38220   1.00
Zn1      0.38220    0.38220    0.44780   1.00
Zn1      0.44780    0.44780    0.44780   1.00
O2       0.43850    0.39150    0.32680   1.00
O2       0.43850    0.32680    0.39150   1.00
O2       0.50320    0.39150    0.39150   1.00
O2       0.39150    0.43850    0.32680   1.00
O2       0.32680    0.43850    0.39150   1.00
O2       0.39150    0.50320    0.39150   1.00
O2       0.39150    0.32680    0.43850   1.00
O2       0.32680    0.39150    0.43850   1.00
O2       0.39150    0.39150    0.50320   1.00
O2       0.50320    0.43850    0.43850   1.00
O2       0.43850    0.50320    0.43850   1.00
O2       0.43850    0.43850    0.50320   1.00
C1       0.41500    0.41500    0.30980   1.00
C1       0.41500    0.30980    0.41500   1.00
C1       0.52020    0.41500    0.41500   1.00
C1       0.30980    0.41500    0.41500   1.00
C1       0.41500    0.52020    0.41500   1.00
C1       0.41500    0.41500    0.52020   1.00
O1       0.91500    0.91500    0.41500   1.00
Zn1      0.94780    0.88220    0.38220   1.00
Zn1      0.88220    0.94780    0.38220   1.00
Zn1      0.88220    0.88220    0.44780   1.00
Zn1      0.94780    0.94780    0.44780   1.00
O2       0.93850    0.89150    0.32680   1.00
O2       0.93850    0.82680    0.39150   1.00
O2       1.00320    0.89150    0.39150   1.00
O2       0.89150    0.93850    0.32680   1.00
O2       0.82680    0.93850    0.39150   1.00
O2       0.89150    1.00320    0.39150   1.00
O2       0.89150    0.82680    0.43850   1.00
O2       0.82680    0.89150    0.43850   1.00
O2       0.89150    0.89150    0.50320   1.00
O2       1.00320    0.93850    0.43850   1.00
O2       0.93850    1.00320    0.43850   1.00
O2       0.93850    0.93850    0.50320   1.00
C1       0.91500    0.91500    0.30980   1.00
C1       0.91500    0.80980    0.41500   1.00
C1       1.02020    0.91500    0.41500   1.00
C1       0.80980    0.91500    0.41500   1.00
C1       0.91500    1.02020    0.41500   1.00
C1       0.91500    0.91500    0.52020   1.00
O1       0.91500    0.41500    0.91500   1.00
Zn1      0.94780    0.38220    0.88220   1.00
Zn1      0.88220    0.44780    0.88220   1.00
Zn1      0.88220    0.38220    0.94780   1.00
Zn1      0.94780    0.44780    0.94780   1.00
O2       0.93850    0.39150    0.82680   1.00
O2       0.93850    0.32680    0.89150   1.00
O2       1.00320    0.39150    0.89150   1.00
O2       0.89150    0.43850    0.82680   1.00
O2       0.82680    0.43850    0.89150   1.00
O2       0.89150    0.50320    0.89150   1.00
O2       0.89150    0.32680    0.93850   1.00
O2       0.82680    0.39150    0.93850   1.00
O2       0.89150    0.39150    1.00320   1.00
O2       1.00320    0.43850    0.93850   1.00
O2       0.93850    0.50320    0.93850   1.00
O2       0.93850    0.43850    1.00320   1.00
C1       0.91500    0.41500    0.80980   1.00
C1       0.91500    0.30980    0.91500   1.00
C1       1.02020    0.41500    0.91500   1.00
C1       0.80980    0.41500    0.91500   1.00
C1       0.91500    0.52020    0.91500   1.00
C1       0.91500    0.41500    1.02020   1.00
O1       0.41500    0.91500    0.91500   1.00
Zn1      0.44780    0.88220    0.88220   1.00
Zn1      0.38220    0.94780    0.88220   1.00
Zn1      0.38220    0.88220    0.94780   1.00
Zn1      0.44780    0.94780    0.94780   1.00
O2       0.43850    0.89150    0.82680   1.00
O2       0.43850    0.82680    0.89150   1.00
O2       0.50320    0.89150    0.89150   1.00
O2       0.39150    0.93850    0.82680   1.00
O2       0.32680    0.93850    0.89150   1.00
O2       0.39150    1.00320    0.89150   1.00
O2       0.39150    0.82680    0.93850   1.00
O2       0.32680    0.89150    0.93850   1.00
O2       0.39150    0.89150    1.00320   1.00
O2       0.50320    0.93850    0.93850   1.00
O2       0.43850    1.00320    0.93850   1.00
O2       0.43850    0.93850    1.00320   1.00
C1       0.41500    0.91500    0.80980   1.00
C1       0.41500    0.80980    0.91500   1.00
C1       0.52020    0.91500    0.91500   1.00
C1       0.30980    0.91500    0.91500   1.00
C1       0.41500    1.02020    0.91500   1.00
C1       0.41500    0.91500    1.02020   1.00
C5       0.86730    0.79870    1.13227   1.00
H2       0.84791    0.81969    1.14755   1.00
H2       0.88434    0.81625    1.11099   1.00
C5       0.89489    0.77913    1.16219   1.00
H2       0.92017    0.79839    1.16890   1.00
H2       0.90589    0.75093    1.15040   1.00
O_3      0.78790    0.69025    0.98000   1.00
C4       0.74966    0.75029    1.02100   1.00
C3c      0.77881    0.76953    1.04243   1.00
H1       0.80182    0.78486    1.02725   1.00
C3d      0.71962    0.73096    1.04135   1.00
C3       0.77911    0.76889    1.08354   1.00
O2       0.80572    0.79226    1.10248   1.00
C3       0.72026    0.72964    1.08227   1.00
H1       0.69739    0.71329    1.09657   1.00
C2       0.74975    0.74858    1.10439   1.00
C5       0.76597    0.65539    0.97879   1.00
H2       0.76141    0.64479    0.94838   1.00
H2       0.73679    0.65941    0.99266   1.00
C5       0.78857    0.62453    1.00122   1.00
H2       0.79409    0.63559    1.03129   1.00
H2       0.81750    0.62050    0.98691   1.00
C5       0.76604    0.58588    1.00254   1.00
H2       0.76019    0.57481    0.97260   1.00
H2       0.73774    0.58958    1.01803   1.00
H2       0.78339    0.56345    1.01830   1.00
C5       0.66041    0.73337    1.01105   1.00
C5       0.83994    0.77073    1.11070   1.00
H2       0.66996    0.75693    0.99088   1.00
H2       0.64643    0.74697    1.03712   1.00
H2       0.85372    0.76058    1.08300   1.00
H2       0.83401    0.74431    1.12895   1.00
H2       0.87968    0.77374    1.19055   1.00
H2       0.61352    0.74776    0.94250   1.00
H2       0.58655    0.75463    0.98766   1.00
C2       0.74957    0.74747    0.89605   1.00
C3       0.73199    0.77895    0.91597   1.00
O2       0.70660    0.80358    0.89674   1.00
C3       0.76862    0.71833    0.91826   1.00
H1       0.78322    0.69439    0.90385   1.00
C3a      0.73292    0.78012    0.95713   1.00
H1       0.71743    0.80323    0.97202   1.00
C3b      0.76841    0.71892    0.95922   1.00
C4       0.75041    0.74992    0.97900   1.00
O_3      0.69194    0.70912    1.02167   1.00
C5       0.72549    0.83889    0.88720   1.00
H2       0.73634    0.85409    0.91391   1.00
C5       0.69538    0.86470    0.86666   1.00
H2       0.75065    0.83363    0.86726   1.00
H2       0.67637    0.87830    0.88923   1.00
H2       0.67628    0.84521    0.84899   1.00
C5       0.71414    0.89630    0.84069   1.00
H2       0.73541    0.91350    0.85811   1.00
H2       0.69155    0.91646    0.82891   1.00
H2       0.72925    0.88313    0.81494   1.00
C5       0.63047    0.70802    0.99020   1.00
H2       0.61608    0.68889    1.01218   1.00
H2       0.64627    0.68850    0.96955   1.00
C5       0.60010    0.73261    0.96803   1.00
H2       0.57654    0.71345    0.95666   1.00
C5       0.79870    1.13227    0.86730   1.00
H2       0.81969    1.14755    0.84791   1.00
H2       0.81625    1.11099    0.88434   1.00
C5       0.77913    1.16219    0.89489   1.00
H2       0.79839    1.16890    0.92017   1.00
H2       0.75093    1.15040    0.90589   1.00
O_3      0.69025    0.98000    0.78790   1.00
C4       0.75029    1.02100    0.74966   1.00
C3c      0.76953    1.04243    0.77881   1.00
H1       0.78486    1.02725    0.80182   1.00
C3d      0.73096    1.04135    0.71962   1.00
C3       0.76889    1.08354    0.77911   1.00
O2       0.79226    1.10248    0.80572   1.00
C3       0.72964    1.08227    0.72026   1.00
H1       0.71329    1.09657    0.69739   1.00
C2       0.74858    1.10439    0.74975   1.00
C5       0.65539    0.97879    0.76597   1.00
H2       0.64479    0.94838    0.76141   1.00
H2       0.65941    0.99266    0.73679   1.00
C5       0.62453    1.00122    0.78857   1.00
H2       0.63559    1.03129    0.79409   1.00
H2       0.62050    0.98691    0.81750   1.00
C5       0.58588    1.00254    0.76604   1.00
H2       0.57481    0.97260    0.76019   1.00
H2       0.58958    1.01803    0.73774   1.00
H2       0.56345    1.01830    0.78339   1.00
C5       0.73337    1.01105    0.66041   1.00
C5       0.77073    1.11070    0.83994   1.00
H2       0.75693    0.99088    0.66996   1.00
H2       0.74697    1.03712    0.64643   1.00
H2       0.76058    1.08300    0.85372   1.00
H2       0.74431    1.12895    0.83401   1.00
H2       0.77374    1.19055    0.87968   1.00
H2       0.74776    0.94250    0.61352   1.00
H2       0.75463    0.98766    0.58655   1.00
C2       0.74747    0.89605    0.74957   1.00
C3       0.77895    0.91597    0.73199   1.00
O2       0.80358    0.89674    0.70660   1.00
C3       0.71833    0.91826    0.76862   1.00
H1       0.69439    0.90385    0.78322   1.00
C3a      0.78012    0.95713    0.73292   1.00
H1       0.80323    0.97202    0.71743   1.00
C3b      0.71892    0.95922    0.76841   1.00
C4       0.74992    0.97900    0.75041   1.00
O_3      0.70912    1.02167    0.69194   1.00
C5       0.83889    0.88720    0.72549   1.00
H2       0.85409    0.91391    0.73634   1.00
C5       0.86470    0.86666    0.69538   1.00
H2       0.83363    0.86726    0.75065   1.00
H2       0.87830    0.88923    0.67637   1.00
H2       0.84521    0.84899    0.67628   1.00
C5       0.89630    0.84069    0.71414   1.00
H2       0.91350    0.85811    0.73541   1.00
H2       0.91646    0.82891    0.69155   1.00
H2       0.88313    0.81494    0.72925   1.00
C5       0.70802    0.99020    0.63047   1.00
H2       0.68889    1.01218    0.61608   1.00
H2       0.68850    0.96955    0.64627   1.00
C5       0.73261    0.96803    0.60010   1.00
H2       0.71345    0.95666    0.57654   1.00
C5       0.36773    0.86730    0.70130   1.00
H2       0.35245    0.84791    0.68031   1.00
H2       0.38901    0.88434    0.68375   1.00
C5       0.33781    0.89489    0.72087   1.00
H2       0.33110    0.92017    0.70161   1.00
H2       0.34960    0.90589    0.74907   1.00
O_3      0.52000    0.78790    0.80975   1.00
C4       0.47900    0.74966    0.74971   1.00
C3c      0.45757    0.77881    0.73047   1.00
H1       0.47275    0.80182    0.71514   1.00
C3d      0.45865    0.71962    0.76904   1.00
C3       0.41646    0.77911    0.73111   1.00
O2       0.39752    0.80572    0.70774   1.00
C3       0.41773    0.72026    0.77036   1.00
H1       0.40343    0.69739    0.78671   1.00
C2       0.39561    0.74975    0.75142   1.00
C5       0.52121    0.76597    0.84461   1.00
H2       0.55162    0.76141    0.85521   1.00
H2       0.50734    0.73679    0.84059   1.00
C5       0.49878    0.78857    0.87547   1.00
H2       0.46871    0.79409    0.86441   1.00
H2       0.51309    0.81750    0.87950   1.00
C5       0.49746    0.76604    0.91412   1.00
H2       0.52740    0.76019    0.92519   1.00
H2       0.48197    0.73774    0.91042   1.00
H2       0.48170    0.78339    0.93655   1.00
C5       0.48895    0.66041    0.76663   1.00
C5       0.38930    0.83994    0.72927   1.00
H2       0.50912    0.66996    0.74307   1.00
H2       0.46288    0.64643    0.75303   1.00
H2       0.41700    0.85372    0.73942   1.00
H2       0.37105    0.83401    0.75569   1.00
H2       0.30945    0.87968    0.72626   1.00
H2       0.55750    0.61352    0.75224   1.00
H2       0.51234    0.58655    0.74537   1.00
C2       0.60395    0.74957    0.75253   1.00
C3       0.58403    0.73199    0.72105   1.00
O2       0.60326    0.70660    0.69642   1.00
C3       0.58174    0.76862    0.78167   1.00
H1       0.59615    0.78322    0.80561   1.00
C3a      0.54287    0.73292    0.71988   1.00
H1       0.52798    0.71743    0.69677   1.00
C3b      0.54078    0.76841    0.78108   1.00
C4       0.52100    0.75041    0.75008   1.00
O_3      0.47833    0.69194    0.79088   1.00
C5       0.61280    0.72549    0.66111   1.00
H2       0.58609    0.73634    0.64591   1.00
C5       0.63334    0.69538    0.63530   1.00
H2       0.63274    0.75065    0.66637   1.00
H2       0.61077    0.67637    0.62170   1.00
H2       0.65101    0.67628    0.65479   1.00
C5       0.65931    0.71414    0.60370   1.00
H2       0.64189    0.73541    0.58650   1.00
H2       0.67109    0.69155    0.58354   1.00
H2       0.68506    0.72925    0.61687   1.00
C5       0.50980    0.63047    0.79198   1.00
H2       0.48782    0.61608    0.81111   1.00
H2       0.53045    0.64627    0.81150   1.00
C5       0.53197    0.60010    0.76739   1.00
H2       0.54334    0.57654    0.78655   1.00
C5       1.13227    0.86730    0.79870   1.00
H2       1.14755    0.84791    0.81969   1.00
H2       1.11099    0.88434    0.81625   1.00
C5       1.16219    0.89489    0.77913   1.00
H2       1.16890    0.92017    0.79839   1.00
H2       1.15040    0.90589    0.75093   1.00
O_3      0.98000    0.78790    0.69025   1.00
C4       1.02100    0.74966    0.75029   1.00
C3c      1.04243    0.77881    0.76953   1.00
H1       1.02725    0.80182    0.78486   1.00
C3d      1.04135    0.71962    0.73096   1.00
C3       1.08354    0.77911    0.76889   1.00
O2       1.10248    0.80572    0.79226   1.00
C3       1.08227    0.72026    0.72964   1.00
H1       1.09657    0.69739    0.71329   1.00
C2       1.10439    0.74975    0.74858   1.00
C5       0.97879    0.76597    0.65539   1.00
H2       0.94838    0.76141    0.64479   1.00
H2       0.99266    0.73679    0.65941   1.00
C5       1.00122    0.78857    0.62453   1.00
H2       1.03129    0.79409    0.63559   1.00
H2       0.98691    0.81750    0.62050   1.00
C5       1.00254    0.76604    0.58588   1.00
H2       0.97260    0.76019    0.57481   1.00
H2       1.01803    0.73774    0.58958   1.00
H2       1.01830    0.78339    0.56345   1.00
C5       1.01105    0.66041    0.73337   1.00
C5       1.11070    0.83994    0.77073   1.00
H2       0.99088    0.66996    0.75693   1.00
H2       1.03712    0.64643    0.74697   1.00
H2       1.08300    0.85372    0.76058   1.00
H2       1.12895    0.83401    0.74431   1.00
H2       1.19055    0.87968    0.77374   1.00
H2       0.94250    0.61352    0.74776   1.00
H2       0.98766    0.58655    0.75463   1.00
C2       0.89605    0.74957    0.74747   1.00
C3       0.91597    0.73199    0.77895   1.00
O2       0.89674    0.70660    0.80358   1.00
C3       0.91826    0.76862    0.71833   1.00
H1       0.90385    0.78322    0.69439   1.00
C3a      0.95713    0.73292    0.78012   1.00
H1       0.97202    0.71743    0.80323   1.00
C3b      0.95922    0.76841    0.71892   1.00
C4       0.97900    0.75041    0.74992   1.00
O_3      1.02167    0.69194    0.70912   1.00
C5       0.88720    0.72549    0.83889   1.00
H2       0.91391    0.73634    0.85409   1.00
C5       0.86666    0.69538    0.86470   1.00
H2       0.86726    0.75065    0.83363   1.00
H2       0.88923    0.67637    0.87830   1.00
H2       0.84899    0.67628    0.84521   1.00
C5       0.84069    0.71414    0.89630   1.00
H2       0.85811    0.73541    0.91350   1.00
H2       0.82891    0.69155    0.91646   1.00
H2       0.81494    0.72925    0.88313   1.00
C5       0.99020    0.63047    0.70802   1.00
H2       1.01218    0.61608    0.68889   1.00
H2       0.96955    0.64627    0.68850   1.00
C5       0.96803    0.60010    0.73261   1.00
H2       0.95666    0.57654    0.71345   1.00
C5       0.70130    0.36773    0.86730   1.00
H2       0.68031    0.35245    0.84791   1.00
H2       0.68375    0.38901    0.88434   1.00
C5       0.72087    0.33781    0.89489   1.00
H2       0.70161    0.33110    0.92017   1.00
H2       0.74907    0.34960    0.90589   1.00
O_3      0.80975    0.52000    0.78790   1.00
C4       0.74971    0.47900    0.74966   1.00
C3c      0.73047    0.45757    0.77881   1.00
H1       0.71514    0.47275    0.80182   1.00
C3d      0.76904    0.45865    0.71962   1.00
C3       0.73111    0.41646    0.77911   1.00
O2       0.70774    0.39752    0.80572   1.00
C3       0.77036    0.41773    0.72026   1.00
H1       0.78671    0.40343    0.69739   1.00
C2       0.75142    0.39561    0.74975   1.00
C5       0.84461    0.52121    0.76597   1.00
H2       0.85521    0.55162    0.76141   1.00
H2       0.84059    0.50734    0.73679   1.00
C5       0.87547    0.49878    0.78857   1.00
H2       0.86441    0.46871    0.79409   1.00
H2       0.87950    0.51309    0.81750   1.00
C5       0.91412    0.49746    0.76604   1.00
H2       0.92519    0.52740    0.76019   1.00
H2       0.91042    0.48197    0.73774   1.00
H2       0.93655    0.48170    0.78339   1.00
C5       0.76663    0.48895    0.66041   1.00
C5       0.72927    0.38930    0.83994   1.00
H2       0.74307    0.50912    0.66996   1.00
H2       0.75303    0.46288    0.64643   1.00
H2       0.73942    0.41700    0.85372   1.00
H2       0.75569    0.37105    0.83401   1.00
H2       0.72626    0.30945    0.87968   1.00
H2       0.75224    0.55750    0.61352   1.00
H2       0.74537    0.51234    0.58655   1.00
C2       0.75253    0.60395    0.74957   1.00
C3       0.72105    0.58403    0.73199   1.00
O2       0.69642    0.60326    0.70660   1.00
C3       0.78167    0.58174    0.76862   1.00
H1       0.80561    0.59615    0.78322   1.00
C3a      0.71988    0.54287    0.73292   1.00
H1       0.69677    0.52798    0.71743   1.00
C3b      0.78108    0.54078    0.76841   1.00
C4       0.75008    0.52100    0.75041   1.00
O_3      0.79088    0.47833    0.69194   1.00
C5       0.66111    0.61280    0.72549   1.00
H2       0.64591    0.58609    0.73634   1.00
C5       0.63530    0.63334    0.69538   1.00
H2       0.66637    0.63274    0.75065   1.00
H2       0.62170    0.61077    0.67637   1.00
H2       0.65479    0.65101    0.67628   1.00
C5       0.60370    0.65931    0.71414   1.00
H2       0.58650    0.64189    0.73541   1.00
H2       0.58354    0.67109    0.69155   1.00
H2       0.61687    0.68506    0.72925   1.00
C5       0.79198    0.50980    0.63047   1.00
H2       0.81111    0.48782    0.61608   1.00
H2       0.81150    0.53045    0.64627   1.00
C5       0.76739    0.53197    0.60010   1.00
H2       0.78655    0.54334    0.57654   1.00
C5       0.86730    0.70130    0.36773   1.00
H2       0.84791    0.68031    0.35245   1.00
H2       0.88434    0.68375    0.38901   1.00
C5       0.89489    0.72087    0.33781   1.00
H2       0.92017    0.70161    0.33110   1.00
H2       0.90589    0.74907    0.34960   1.00
O_3      0.78790    0.80975    0.52000   1.00
C4       0.74966    0.74971    0.47900   1.00
C3c      0.77881    0.73047    0.45757   1.00
H1       0.80182    0.71514    0.47275   1.00
C3d      0.71962    0.76904    0.45865   1.00
C3       0.77911    0.73111    0.41646   1.00
O2       0.80572    0.70774    0.39752   1.00
C3       0.72026    0.77036    0.41773   1.00
H1       0.69739    0.78671    0.40343   1.00
C2       0.74975    0.75142    0.39561   1.00
C5       0.76597    0.84461    0.52121   1.00
H2       0.76141    0.85521    0.55162   1.00
H2       0.73679    0.84059    0.50734   1.00
C5       0.78857    0.87547    0.49878   1.00
H2       0.79409    0.86441    0.46871   1.00
H2       0.81750    0.87950    0.51309   1.00
C5       0.76604    0.91412    0.49746   1.00
H2       0.76019    0.92519    0.52740   1.00
H2       0.73774    0.91042    0.48197   1.00
H2       0.78339    0.93655    0.48170   1.00
C5       0.66041    0.76663    0.48895   1.00
C5       0.83994    0.72927    0.38930   1.00
H2       0.66996    0.74307    0.50912   1.00
H2       0.64643    0.75303    0.46288   1.00
H2       0.85372    0.73942    0.41700   1.00
H2       0.83401    0.75569    0.37105   1.00
H2       0.87968    0.72626    0.30945   1.00
H2       0.61352    0.75224    0.55750   1.00
H2       0.58655    0.74537    0.51234   1.00
C2       0.74957    0.75253    0.60395   1.00
C3       0.73199    0.72105    0.58403   1.00
O2       0.70660    0.69642    0.60326   1.00
C3       0.76862    0.78167    0.58174   1.00
H1       0.78322    0.80561    0.59615   1.00
C3a      0.73292    0.71988    0.54287   1.00
H1       0.71743    0.69677    0.52798   1.00
C3b      0.76841    0.78108    0.54078   1.00
C4       0.75041    0.75008    0.52100   1.00
O_3      0.69194    0.79088    0.47833   1.00
C5       0.72549    0.66111    0.61280   1.00
H2       0.73634    0.64591    0.58609   1.00
C5       0.69538    0.63530    0.63334   1.00
H2       0.75065    0.66637    0.63274   1.00
H2       0.67637    0.62170    0.61077   1.00
H2       0.67628    0.65479    0.65101   1.00
C5       0.71414    0.60370    0.65931   1.00
H2       0.73541    0.58650    0.64189   1.00
H2       0.69155    0.58354    0.67109   1.00
H2       0.72925    0.61687    0.68506   1.00
C5       0.63047    0.79198    0.50980   1.00
H2       0.61608    0.81111    0.48782   1.00
H2       0.64627    0.81150    0.53045   1.00
C5       0.60010    0.76739    0.53197   1.00
H2       0.57654    0.78655    0.54334   1.00
C5       0.36730    0.29870    1.13227   1.00
H2       0.34791    0.31969    1.14755   1.00
H2       0.38434    0.31625    1.11099   1.00
C5       0.39489    0.27913    1.16219   1.00
H2       0.42017    0.29839    1.16890   1.00
H2       0.40589    0.25093    1.15040   1.00
O_3      0.28790    0.19025    0.98000   1.00
C4       0.24966    0.25029    1.02100   1.00
C3c      0.27881    0.26953    1.04243   1.00
H1       0.30182    0.28486    1.02725   1.00
C3d      0.21962    0.23096    1.04135   1.00
C3       0.27911    0.26889    1.08354   1.00
O2       0.30572    0.29226    1.10248   1.00
C3       0.22026    0.22964    1.08227   1.00
H1       0.19739    0.21329    1.09657   1.00
C2       0.24975    0.24858    1.10439   1.00
C5       0.26597    0.15539    0.97879   1.00
H2       0.26141    0.14479    0.94838   1.00
H2       0.23679    0.15941    0.99266   1.00
C5       0.28857    0.12453    1.00122   1.00
H2       0.29409    0.13559    1.03129   1.00
H2       0.31750    0.12050    0.98691   1.00
C5       0.26604    0.08588    1.00254   1.00
H2       0.26019    0.07481    0.97260   1.00
H2       0.23774    0.08958    1.01803   1.00
H2       0.28339    0.06345    1.01830   1.00
C5       0.16041    0.23337    1.01105   1.00
C5       0.33994    0.27073    1.11070   1.00
H2       0.16996    0.25693    0.99088   1.00
H2       0.14643    0.24697    1.03712   1.00
H2       0.35372    0.26058    1.08300   1.00
H2       0.33401    0.24431    1.12895   1.00
H2       0.37968    0.27374    1.19055   1.00
H2       0.11352    0.24776    0.94250   1.00
H2       0.08655    0.25463    0.98766   1.00
C2       0.24957    0.24747    0.89605   1.00
C3       0.23199    0.27895    0.91597   1.00
O2       0.20660    0.30358    0.89674   1.00
C3       0.26862    0.21833    0.91826   1.00
H1       0.28322    0.19439    0.90385   1.00
C3a      0.23292    0.28012    0.95713   1.00
H1       0.21743    0.30323    0.97202   1.00
C3b      0.26841    0.21892    0.95922   1.00
C4       0.25041    0.24992    0.97900   1.00
O_3      0.19194    0.20912    1.02167   1.00
C5       0.22549    0.33889    0.88720   1.00
H2       0.23634    0.35409    0.91391   1.00
C5       0.19538    0.36470    0.86666   1.00
H2       0.25065    0.33363    0.86726   1.00
H2       0.17637    0.37830    0.88923   1.00
H2       0.17628    0.34521    0.84899   1.00
C5       0.21414    0.39630    0.84069   1.00
H2       0.23541    0.41350    0.85811   1.00
H2       0.19155    0.41646    0.82891   1.00
H2       0.22925    0.38313    0.81494   1.00
C5       0.13047    0.20802    0.99020   1.00
H2       0.11608    0.18889    1.01218   1.00
H2       0.14627    0.18850    0.96955   1.00
C5       0.10010    0.23261    0.96803   1.00
H2       0.07654    0.21345    0.95666   1.00
C5       0.29870    0.63227    0.86730   1.00
H2       0.31969    0.64755    0.84791   1.00
H2       0.31625    0.61099    0.88434   1.00
C5       0.27913    0.66219    0.89489   1.00
H2       0.29839    0.66890    0.92017   1.00
H2       0.25093    0.65040    0.90589   1.00
O_3      0.19025    0.48000    0.78790   1.00
C4       0.25029    0.52100    0.74966   1.00
C3c      0.26953    0.54243    0.77881   1.00
H1       0.28486    0.52725    0.80182   1.00
C3d      0.23096    0.54135    0.71962   1.00
C3       0.26889    0.58354    0.77911   1.00
O2       0.29226    0.60248    0.80572   1.00
C3       0.22964    0.58227    0.72026   1.00
H1       0.21329    0.59657    0.69739   1.00
C2       0.24858    0.60439    0.74975   1.00
C5       0.15539    0.47879    0.76597   1.00
H2       0.14479    0.44838    0.76141   1.00
H2       0.15941    0.49266    0.73679   1.00
C5       0.12453    0.50122    0.78857   1.00
H2       0.13559    0.53129    0.79409   1.00
H2       0.12050    0.48691    0.81750   1.00
C5       0.08588    0.50254    0.76604   1.00
H2       0.07481    0.47260    0.76019   1.00
H2       0.08958    0.51803    0.73774   1.00
H2       0.06345    0.51830    0.78339   1.00
C5       0.23337    0.51105    0.66041   1.00
C5       0.27073    0.61070    0.83994   1.00
H2       0.25693    0.49088    0.66996   1.00
H2       0.24697    0.53712    0.64643   1.00
H2       0.26058    0.58300    0.85372   1.00
H2       0.24431    0.62895    0.83401   1.00
H2       0.27374    0.69055    0.87968   1.00
H2       0.24776    0.44250    0.61352   1.00
H2       0.25463    0.48766    0.58655   1.00
C2       0.24747    0.39605    0.74957   1.00
C3       0.27895    0.41597    0.73199   1.00
O2       0.30358    0.39674    0.70660   1.00
C3       0.21833    0.41826    0.76862   1.00
H1       0.19439    0.40385    0.78322   1.00
C3a      0.28012    0.45713    0.73292   1.00
H1       0.30323    0.47202    0.71743   1.00
C3b      0.21892    0.45922    0.76841   1.00
C4       0.24992    0.47900    0.75041   1.00
O_3      0.20912    0.52167    0.69194   1.00
C5       0.33889    0.38720    0.72549   1.00
H2       0.35409    0.41391    0.73634   1.00
C5       0.36470    0.36666    0.69538   1.00
H2       0.33363    0.36726    0.75065   1.00
H2       0.37830    0.38923    0.67637   1.00
H2       0.34521    0.34899    0.67628   1.00
C5       0.39630    0.34069    0.71414   1.00
H2       0.41350    0.35811    0.73541   1.00
H2       0.41646    0.32891    0.69155   1.00
H2       0.38313    0.31494    0.72925   1.00
C5       0.20802    0.49020    0.63047   1.00
H2       0.18889    0.51218    0.61608   1.00
H2       0.18850    0.46955    0.64627   1.00
C5       0.23261    0.46803    0.60010   1.00
H2       0.21345    0.45666    0.57654   1.00
C5       -0.13227   0.36730    0.70130   1.00
H2       -0.14755   0.34791    0.68031   1.00
H2       -0.11099   0.38434    0.68375   1.00
C5       -0.16219   0.39489    0.72087   1.00
H2       -0.16890   0.42017    0.70161   1.00
H2       -0.15040   0.40589    0.74907   1.00
O_3      0.02000    0.28790    0.80975   1.00
C4       -0.02100   0.24966    0.74971   1.00
C3c      -0.04243   0.27881    0.73047   1.00
H1       -0.02725   0.30182    0.71514   1.00
C3d      -0.04135   0.21962    0.76904   1.00
C3       -0.08354   0.27911    0.73111   1.00
O2       -0.10248   0.30572    0.70774   1.00
C3       -0.08227   0.22026    0.77036   1.00
H1       -0.09657   0.19739    0.78671   1.00
C2       -0.10439   0.24975    0.75142   1.00
C5       0.02121    0.26597    0.84461   1.00
H2       0.05162    0.26141    0.85521   1.00
H2       0.00734    0.23679    0.84059   1.00
C5       -0.00122   0.28857    0.87547   1.00
H2       -0.03129   0.29409    0.86441   1.00
H2       0.01309    0.31750    0.87950   1.00
C5       -0.00254   0.26604    0.91412   1.00
H2       0.02740    0.26019    0.92519   1.00
H2       -0.01803   0.23774    0.91042   1.00
H2       -0.01830   0.28339    0.93655   1.00
C5       -0.01105   0.16041    0.76663   1.00
C5       -0.11070   0.33994    0.72927   1.00
H2       0.00912    0.16996    0.74307   1.00
H2       -0.03712   0.14643    0.75303   1.00
H2       -0.08300   0.35372    0.73942   1.00
H2       -0.12895   0.33401    0.75569   1.00
H2       -0.19055   0.37968    0.72626   1.00
H2       0.05750    0.11352    0.75224   1.00
H2       0.01234    0.08655    0.74537   1.00
C2       0.10395    0.24957    0.75253   1.00
C3       0.08403    0.23199    0.72105   1.00
O2       0.10326    0.20660    0.69642   1.00
C3       0.08174    0.26862    0.78167   1.00
H1       0.09615    0.28322    0.80561   1.00
C3a      0.04287    0.23292    0.71988   1.00
H1       0.02798    0.21743    0.69677   1.00
C3b      0.04078    0.26841    0.78108   1.00
C4       0.02100    0.25041    0.75008   1.00
O_3      -0.02167   0.19194    0.79088   1.00
C5       0.11280    0.22549    0.66111   1.00
H2       0.08609    0.23634    0.64591   1.00
C5       0.13334    0.19538    0.63530   1.00
H2       0.13274    0.25065    0.66637   1.00
H2       0.11077    0.17637    0.62170   1.00
H2       0.15101    0.17628    0.65479   1.00
C5       0.15931    0.21414    0.60370   1.00
H2       0.14189    0.23541    0.58650   1.00
H2       0.17109    0.19155    0.58354   1.00
H2       0.18506    0.22925    0.61687   1.00
C5       0.00980    0.13047    0.79198   1.00
H2       -0.01218   0.11608    0.81111   1.00
H2       0.03045    0.14627    0.81150   1.00
C5       0.03197    0.10010    0.76739   1.00
H2       0.04334    0.07654    0.78655   1.00
C5       0.63227    0.36730    0.79870   1.00
H2       0.64755    0.34791    0.81969   1.00
H2       0.61099    0.38434    0.81625   1.00
C5       0.66219    0.39489    0.77913   1.00
H2       0.66890    0.42017    0.79839   1.00
H2       0.65040    0.40589    0.75093   1.00
O_3      0.48000    0.28790    0.69025   1.00
C4       0.52100    0.24966    0.75029   1.00
C3c      0.54243    0.27881    0.76953   1.00
H1       0.52725    0.30182    0.78486   1.00
C3d      0.54135    0.21962    0.73096   1.00
C3       0.58354    0.27911    0.76889   1.00
O2       0.60248    0.30572    0.79226   1.00
C3       0.58227    0.22026    0.72964   1.00
H1       0.59657    0.19739    0.71329   1.00
C2       0.60439    0.24975    0.74858   1.00
C5       0.47879    0.26597    0.65539   1.00
H2       0.44838    0.26141    0.64479   1.00
H2       0.49266    0.23679    0.65941   1.00
C5       0.50122    0.28857    0.62453   1.00
H2       0.53129    0.29409    0.63559   1.00
H2       0.48691    0.31750    0.62050   1.00
C5       0.50254    0.26604    0.58588   1.00
H2       0.47260    0.26019    0.57481   1.00
H2       0.51803    0.23774    0.58958   1.00
H2       0.51830    0.28339    0.56345   1.00
C5       0.51105    0.16041    0.73337   1.00
C5       0.61070    0.33994    0.77073   1.00
H2       0.49088    0.16996    0.75693   1.00
H2       0.53712    0.14643    0.74697   1.00
H2       0.58300    0.35372    0.76058   1.00
H2       0.62895    0.33401    0.74431   1.00
H2       0.69055    0.37968    0.77374   1.00
H2       0.44250    0.11352    0.74776   1.00
H2       0.48766    0.08655    0.75463   1.00
C2       0.39605    0.24957    0.74747   1.00
C3       0.41597    0.23199    0.77895   1.00
O2       0.39674    0.20660    0.80358   1.00
C3       0.41826    0.26862    0.71833   1.00
H1       0.40385    0.28322    0.69439   1.00
C3a      0.45713    0.23292    0.78012   1.00
H1       0.47202    0.21743    0.80323   1.00
C3b      0.45922    0.26841    0.71892   1.00
C4       0.47900    0.25041    0.74992   1.00
O_3      0.52167    0.19194    0.70912   1.00
C5       0.38720    0.22549    0.83889   1.00
H2       0.41391    0.23634    0.85409   1.00
C5       0.36666    0.19538    0.86470   1.00
H2       0.36726    0.25065    0.83363   1.00
H2       0.38923    0.17637    0.87830   1.00
H2       0.34899    0.17628    0.84521   1.00
C5       0.34069    0.21414    0.89630   1.00
H2       0.35811    0.23541    0.91350   1.00
H2       0.32891    0.19155    0.91646   1.00
H2       0.31494    0.22925    0.88313   1.00
C5       0.49020    0.13047    0.70802   1.00
H2       0.51218    0.11608    0.68889   1.00
H2       0.46955    0.14627    0.68850   1.00
C5       0.46803    0.10010    0.73261   1.00
H2       0.45666    0.07654    0.71345   1.00
C5       0.20130    -0.13227   0.86730   1.00
H2       0.18031    -0.14755   0.84791   1.00
H2       0.18375    -0.11099   0.88434   1.00
C5       0.22087    -0.16219   0.89489   1.00
H2       0.20161    -0.16890   0.92017   1.00
H2       0.24907    -0.15040   0.90589   1.00
O_3      0.30975    0.02000    0.78790   1.00
C4       0.24971    -0.02100   0.74966   1.00
C3c      0.23047    -0.04243   0.77881   1.00
H1       0.21514    -0.02725   0.80182   1.00
C3d      0.26904    -0.04135   0.71962   1.00
C3       0.23111    -0.08354   0.77911   1.00
O2       0.20774    -0.10248   0.80572   1.00
C3       0.27036    -0.08227   0.72026   1.00
H1       0.28671    -0.09657   0.69739   1.00
C2       0.25142    -0.10439   0.74975   1.00
C5       0.34461    0.02121    0.76597   1.00
H2       0.35521    0.05162    0.76141   1.00
H2       0.34059    0.00734    0.73679   1.00
C5       0.37547    -0.00122   0.78857   1.00
H2       0.36441    -0.03129   0.79409   1.00
H2       0.37950    0.01309    0.81750   1.00
C5       0.41412    -0.00254   0.76604   1.00
H2       0.42519    0.02740    0.76019   1.00
H2       0.41042    -0.01803   0.73774   1.00
H2       0.43655    -0.01830   0.78339   1.00
C5       0.26663    -0.01105   0.66041   1.00
C5       0.22927    -0.11070   0.83994   1.00
H2       0.24307    0.00912    0.66996   1.00
H2       0.25303    -0.03712   0.64643   1.00
H2       0.23942    -0.08300   0.85372   1.00
H2       0.25569    -0.12895   0.83401   1.00
H2       0.22626    -0.19055   0.87968   1.00
H2       0.25224    0.05750    0.61352   1.00
H2       0.24537    0.01234    0.58655   1.00
C2       0.25253    0.10395    0.74957   1.00
C3       0.22105    0.08403    0.73199   1.00
O2       0.19642    0.10326    0.70660   1.00
C3       0.28167    0.08174    0.76862   1.00
H1       0.30561    0.09615    0.78322   1.00
C3a      0.21988    0.04287    0.73292   1.00
H1       0.19677    0.02798    0.71743   1.00
C3b      0.28108    0.04078    0.76841   1.00
C4       0.25008    0.02100    0.75041   1.00
O_3      0.29088    -0.02167   0.69194   1.00
C5       0.16111    0.11280    0.72549   1.00
H2       0.14591    0.08609    0.73634   1.00
C5       0.13530    0.13334    0.69538   1.00
H2       0.16637    0.13274    0.75065   1.00
H2       0.12170    0.11077    0.67637   1.00
H2       0.15479    0.15101    0.67628   1.00
C5       0.10370    0.15931    0.71414   1.00
H2       0.08650    0.14189    0.73541   1.00
H2       0.08354    0.17109    0.69155   1.00
H2       0.11687    0.18506    0.72925   1.00
C5       0.29198    0.00980    0.63047   1.00
H2       0.31111    -0.01218   0.61608   1.00
H2       0.31150    0.03045    0.64627   1.00
C5       0.26739    0.03197    0.60010   1.00
H2       0.28655    0.04334    0.57654   1.00
C5       0.36730    0.20130    0.36773   1.00
H2       0.34791    0.18031    0.35245   1.00
H2       0.38434    0.18375    0.38901   1.00
C5       0.39489    0.22087    0.33781   1.00
H2       0.42017    0.20161    0.33110   1.00
H2       0.40589    0.24907    0.34960   1.00
O_3      0.28790    0.30975    0.52000   1.00
C4       0.24966    0.24971    0.47900   1.00
C3c      0.27881    0.23047    0.45757   1.00
H1       0.30182    0.21514    0.47275   1.00
C3d      0.21962    0.26904    0.45865   1.00
C3       0.27911    0.23111    0.41646   1.00
O2       0.30572    0.20774    0.39752   1.00
C3       0.22026    0.27036    0.41773   1.00
H1       0.19739    0.28671    0.40343   1.00
C2       0.24975    0.25142    0.39561   1.00
C5       0.26597    0.34461    0.52121   1.00
H2       0.26141    0.35521    0.55162   1.00
H2       0.23679    0.34059    0.50734   1.00
C5       0.28857    0.37547    0.49878   1.00
H2       0.29409    0.36441    0.46871   1.00
H2       0.31750    0.37950    0.51309   1.00
C5       0.26604    0.41412    0.49746   1.00
H2       0.26019    0.42519    0.52740   1.00
H2       0.23774    0.41042    0.48197   1.00
H2       0.28339    0.43655    0.48170   1.00
C5       0.16041    0.26663    0.48895   1.00
C5       0.33994    0.22927    0.38930   1.00
H2       0.16996    0.24307    0.50912   1.00
H2       0.14643    0.25303    0.46288   1.00
H2       0.35372    0.23942    0.41700   1.00
H2       0.33401    0.25569    0.37105   1.00
H2       0.37968    0.22626    0.30945   1.00
H2       0.11352    0.25224    0.55750   1.00
H2       0.08655    0.24537    0.51234   1.00
C2       0.24957    0.25253    0.60395   1.00
C3       0.23199    0.22105    0.58403   1.00
O2       0.20660    0.19642    0.60326   1.00
C3       0.26862    0.28167    0.58174   1.00
H1       0.28322    0.30561    0.59615   1.00
C3a      0.23292    0.21988    0.54287   1.00
H1       0.21743    0.19677    0.52798   1.00
C3b      0.26841    0.28108    0.54078   1.00
C4       0.25041    0.25008    0.52100   1.00
O_3      0.19194    0.29088    0.47833   1.00
C5       0.22549    0.16111    0.61280   1.00
H2       0.23634    0.14591    0.58609   1.00
C5       0.19538    0.13530    0.63334   1.00
H2       0.25065    0.16637    0.63274   1.00
H2       0.17637    0.12170    0.61077   1.00
H2       0.17628    0.15479    0.65101   1.00
C5       0.21414    0.10370    0.65931   1.00
H2       0.23541    0.08650    0.64189   1.00
H2       0.19155    0.08354    0.67109   1.00
H2       0.22925    0.11687    0.68506   1.00
C5       0.13047    0.29198    0.50980   1.00
H2       0.11608    0.31111    0.48782   1.00
H2       0.14627    0.31150    0.53045   1.00
C5       0.10010    0.26739    0.53197   1.00
H2       0.07654    0.28655    0.54334   1.00
C5       0.36730    0.79870    0.63227   1.00
H2       0.34791    0.81969    0.64755   1.00
H2       0.38434    0.81625    0.61099   1.00
C5       0.39489    0.77913    0.66219   1.00
H2       0.42017    0.79839    0.66890   1.00
H2       0.40589    0.75093    0.65040   1.00
O_3      0.28790    0.69025    0.48000   1.00
C4       0.24966    0.75029    0.52100   1.00
C3c      0.27881    0.76953    0.54243   1.00
H1       0.30182    0.78486    0.52725   1.00
C3d      0.21962    0.73096    0.54135   1.00
C3       0.27911    0.76889    0.58354   1.00
O2       0.30572    0.79226    0.60248   1.00
C3       0.22026    0.72964    0.58227   1.00
H1       0.19739    0.71329    0.59657   1.00
C2       0.24975    0.74858    0.60439   1.00
C5       0.26597    0.65539    0.47879   1.00
H2       0.26141    0.64479    0.44838   1.00
H2       0.23679    0.65941    0.49266   1.00
C5       0.28857    0.62453    0.50122   1.00
H2       0.29409    0.63559    0.53129   1.00
H2       0.31750    0.62050    0.48691   1.00
C5       0.26604    0.58588    0.50254   1.00
H2       0.26019    0.57481    0.47260   1.00
H2       0.23774    0.58958    0.51803   1.00
H2       0.28339    0.56345    0.51830   1.00
C5       0.16041    0.73337    0.51105   1.00
C5       0.33994    0.77073    0.61070   1.00
H2       0.16996    0.75693    0.49088   1.00
H2       0.14643    0.74697    0.53712   1.00
H2       0.35372    0.76058    0.58300   1.00
H2       0.33401    0.74431    0.62895   1.00
H2       0.37968    0.77374    0.69055   1.00
H2       0.11352    0.74776    0.44250   1.00
H2       0.08655    0.75463    0.48766   1.00
C2       0.24957    0.74747    0.39605   1.00
C3       0.23199    0.77895    0.41597   1.00
O2       0.20660    0.80358    0.39674   1.00
C3       0.26862    0.71833    0.41826   1.00
H1       0.28322    0.69439    0.40385   1.00
C3a      0.23292    0.78012    0.45713   1.00
H1       0.21743    0.80323    0.47202   1.00
C3b      0.26841    0.71892    0.45922   1.00
C4       0.25041    0.74992    0.47900   1.00
O_3      0.19194    0.70912    0.52167   1.00
C5       0.22549    0.83889    0.38720   1.00
H2       0.23634    0.85409    0.41391   1.00
C5       0.19538    0.86470    0.36666   1.00
H2       0.25065    0.83363    0.36726   1.00
H2       0.17637    0.87830    0.38923   1.00
H2       0.17628    0.84521    0.34899   1.00
C5       0.21414    0.89630    0.34069   1.00
H2       0.23541    0.91350    0.35811   1.00
H2       0.19155    0.91646    0.32891   1.00
H2       0.22925    0.88313    0.31494   1.00
C5       0.13047    0.70802    0.49020   1.00
H2       0.11608    0.68889    0.51218   1.00
H2       0.14627    0.68850    0.46955   1.00
C5       0.10010    0.73261    0.46803   1.00
H2       0.07654    0.71345    0.45666   1.00
C5       0.29870    1.13227    0.36730   1.00
H2       0.31969    1.14755    0.34791   1.00
H2       0.31625    1.11099    0.38434   1.00
C5       0.27913    1.16219    0.39489   1.00
H2       0.29839    1.16890    0.42017   1.00
H2       0.25093    1.15040    0.40589   1.00
O_3      0.19025    0.98000    0.28790   1.00
C4       0.25029    1.02100    0.24966   1.00
C3c      0.26953    1.04243    0.27881   1.00
H1       0.28486    1.02725    0.30182   1.00
C3d      0.23096    1.04135    0.21962   1.00
C3       0.26889    1.08354    0.27911   1.00
O2       0.29226    1.10248    0.30572   1.00
C3       0.22964    1.08227    0.22026   1.00
H1       0.21329    1.09657    0.19739   1.00
C2       0.24858    1.10439    0.24975   1.00
C5       0.15539    0.97879    0.26597   1.00
H2       0.14479    0.94838    0.26141   1.00
H2       0.15941    0.99266    0.23679   1.00
C5       0.12453    1.00122    0.28857   1.00
H2       0.13559    1.03129    0.29409   1.00
H2       0.12050    0.98691    0.31750   1.00
C5       0.08588    1.00254    0.26604   1.00
H2       0.07481    0.97260    0.26019   1.00
H2       0.08958    1.01803    0.23774   1.00
H2       0.06345    1.01830    0.28339   1.00
C5       0.23337    1.01105    0.16041   1.00
C5       0.27073    1.11070    0.33994   1.00
H2       0.25693    0.99088    0.16996   1.00
H2       0.24697    1.03712    0.14643   1.00
H2       0.26058    1.08300    0.35372   1.00
H2       0.24431    1.12895    0.33401   1.00
H2       0.27374    1.19055    0.37968   1.00
H2       0.24776    0.94250    0.11352   1.00
H2       0.25463    0.98766    0.08655   1.00
C2       0.24747    0.89605    0.24957   1.00
C3       0.27895    0.91597    0.23199   1.00
O2       0.30358    0.89674    0.20660   1.00
C3       0.21833    0.91826    0.26862   1.00
H1       0.19439    0.90385    0.28322   1.00
C3a      0.28012    0.95713    0.23292   1.00
H1       0.30323    0.97202    0.21743   1.00
C3b      0.21892    0.95922    0.26841   1.00
C4       0.24992    0.97900    0.25041   1.00
O_3      0.20912    1.02167    0.19194   1.00
C5       0.33889    0.88720    0.22549   1.00
H2       0.35409    0.91391    0.23634   1.00
C5       0.36470    0.86666    0.19538   1.00
H2       0.33363    0.86726    0.25065   1.00
H2       0.37830    0.88923    0.17637   1.00
H2       0.34521    0.84899    0.17628   1.00
C5       0.39630    0.84069    0.21414   1.00
H2       0.41350    0.85811    0.23541   1.00
H2       0.41646    0.82891    0.19155   1.00
H2       0.38313    0.81494    0.22925   1.00
C5       0.20802    0.99020    0.13047   1.00
H2       0.18889    1.01218    0.11608   1.00
H2       0.18850    0.96955    0.14627   1.00
C5       0.23261    0.96803    0.10010   1.00
H2       0.21345    0.95666    0.07654   1.00
C5       -0.13227   0.86730    0.20130   1.00
H2       -0.14755   0.84791    0.18031   1.00
H2       -0.11099   0.88434    0.18375   1.00
C5       -0.16219   0.89489    0.22087   1.00
H2       -0.16890   0.92017    0.20161   1.00
H2       -0.15040   0.90589    0.24907   1.00
O_3      0.02000    0.78790    0.30975   1.00
C4       -0.02100   0.74966    0.24971   1.00
C3c      -0.04243   0.77881    0.23047   1.00
H1       -0.02725   0.80182    0.21514   1.00
C3d      -0.04135   0.71962    0.26904   1.00
C3       -0.08354   0.77911    0.23111   1.00
O2       -0.10248   0.80572    0.20774   1.00
C3       -0.08227   0.72026    0.27036   1.00
H1       -0.09657   0.69739    0.28671   1.00
C2       -0.10439   0.74975    0.25142   1.00
C5       0.02121    0.76597    0.34461   1.00
H2       0.05162    0.76141    0.35521   1.00
H2       0.00734    0.73679    0.34059   1.00
C5       -0.00122   0.78857    0.37547   1.00
H2       -0.03129   0.79409    0.36441   1.00
H2       0.01309    0.81750    0.37950   1.00
C5       -0.00254   0.76604    0.41412   1.00
H2       0.02740    0.76019    0.42519   1.00
H2       -0.01803   0.73774    0.41042   1.00
H2       -0.01830   0.78339    0.43655   1.00
C5       -0.01105   0.66041    0.26663   1.00
C5       -0.11070   0.83994    0.22927   1.00
H2       0.00912    0.66996    0.24307   1.00
H2       -0.03712   0.64643    0.25303   1.00
H2       -0.08300   0.85372    0.23942   1.00
H2       -0.12895   0.83401    0.25569   1.00
H2       -0.19055   0.87968    0.22626   1.00
H2       0.05750    0.61352    0.25224   1.00
H2       0.01234    0.58655    0.24537   1.00
C2       0.10395    0.74957    0.25253   1.00
C3       0.08403    0.73199    0.22105   1.00
O2       0.10326    0.70660    0.19642   1.00
C3       0.08174    0.76862    0.28167   1.00
H1       0.09615    0.78322    0.30561   1.00
C3a      0.04287    0.73292    0.21988   1.00
H1       0.02798    0.71743    0.19677   1.00
C3b      0.04078    0.76841    0.28108   1.00
C4       0.02100    0.75041    0.25008   1.00
O_3      -0.02167   0.69194    0.29088   1.00
C5       0.11280    0.72549    0.16111   1.00
H2       0.08609    0.73634    0.14591   1.00
C5       0.13334    0.69538    0.13530   1.00
H2       0.13274    0.75065    0.16637   1.00
H2       0.11077    0.67637    0.12170   1.00
H2       0.15101    0.67628    0.15479   1.00
C5       0.15931    0.71414    0.10370   1.00
H2       0.14189    0.73541    0.08650   1.00
H2       0.17109    0.69155    0.08354   1.00
H2       0.18506    0.72925    0.11687   1.00
C5       0.00980    0.63047    0.29198   1.00
H2       -0.01218   0.61608    0.31111   1.00
H2       0.03045    0.64627    0.31150   1.00
C5       0.03197    0.60010    0.26739   1.00
H2       0.04334    0.57654    0.28655   1.00
C5       0.63227    0.86730    0.29870   1.00
H2       0.64755    0.84791    0.31969   1.00
H2       0.61099    0.88434    0.31625   1.00
C5       0.66219    0.89489    0.27913   1.00
H2       0.66890    0.92017    0.29839   1.00
H2       0.65040    0.90589    0.25093   1.00
O_3      0.48000    0.78790    0.19025   1.00
C4       0.52100    0.74966    0.25029   1.00
C3c      0.54243    0.77881    0.26953   1.00
H1       0.52725    0.80182    0.28486   1.00
C3d      0.54135    0.71962    0.23096   1.00
C3       0.58354    0.77911    0.26889   1.00
O2       0.60248    0.80572    0.29226   1.00
C3       0.58227    0.72026    0.22964   1.00
H1       0.59657    0.69739    0.21329   1.00
C2       0.60439    0.74975    0.24858   1.00
C5       0.47879    0.76597    0.15539   1.00
H2       0.44838    0.76141    0.14479   1.00
H2       0.49266    0.73679    0.15941   1.00
C5       0.50122    0.78857    0.12453   1.00
H2       0.53129    0.79409    0.13559   1.00
H2       0.48691    0.81750    0.12050   1.00
C5       0.50254    0.76604    0.08588   1.00
H2       0.47260    0.76019    0.07481   1.00
H2       0.51803    0.73774    0.08958   1.00
H2       0.51830    0.78339    0.06345   1.00
C5       0.51105    0.66041    0.23337   1.00
C5       0.61070    0.83994    0.27073   1.00
H2       0.49088    0.66996    0.25693   1.00
H2       0.53712    0.64643    0.24697   1.00
H2       0.58300    0.85372    0.26058   1.00
H2       0.62895    0.83401    0.24431   1.00
H2       0.69055    0.87968    0.27374   1.00
H2       0.44250    0.61352    0.24776   1.00
H2       0.48766    0.58655    0.25463   1.00
C2       0.39605    0.74957    0.24747   1.00
C3       0.41597    0.73199    0.27895   1.00
O2       0.39674    0.70660    0.30358   1.00
C3       0.41826    0.76862    0.21833   1.00
H1       0.40385    0.78322    0.19439   1.00
C3a      0.45713    0.73292    0.28012   1.00
H1       0.47202    0.71743    0.30323   1.00
C3b      0.45922    0.76841    0.21892   1.00
C4       0.47900    0.75041    0.24992   1.00
O_3      0.52167    0.69194    0.20912   1.00
C5       0.38720    0.72549    0.33889   1.00
H2       0.41391    0.73634    0.35409   1.00
C5       0.36666    0.69538    0.36470   1.00
H2       0.36726    0.75065    0.33363   1.00
H2       0.38923    0.67637    0.37830   1.00
H2       0.34899    0.67628    0.34521   1.00
C5       0.34069    0.71414    0.39630   1.00
H2       0.35811    0.73541    0.41350   1.00
H2       0.32891    0.69155    0.41646   1.00
H2       0.31494    0.72925    0.38313   1.00
C5       0.49020    0.63047    0.20802   1.00
H2       0.51218    0.61608    0.18889   1.00
H2       0.46955    0.64627    0.18850   1.00
C5       0.46803    0.60010    0.23261   1.00
H2       0.45666    0.57654    0.21345   1.00
C5       0.20130    0.36773    0.36730   1.00
H2       0.18031    0.35245    0.34791   1.00
H2       0.18375    0.38901    0.38434   1.00
C5       0.22087    0.33781    0.39489   1.00
H2       0.20161    0.33110    0.42017   1.00
H2       0.24907    0.34960    0.40589   1.00
O_3      0.30975    0.52000    0.28790   1.00
C4       0.24971    0.47900    0.24966   1.00
C3c      0.23047    0.45757    0.27881   1.00
H1       0.21514    0.47275    0.30182   1.00
C3d      0.26904    0.45865    0.21962   1.00
C3       0.23111    0.41646    0.27911   1.00
O2       0.20774    0.39752    0.30572   1.00
C3       0.27036    0.41773    0.22026   1.00
H1       0.28671    0.40343    0.19739   1.00
C2       0.25142    0.39561    0.24975   1.00
C5       0.34461    0.52121    0.26597   1.00
H2       0.35521    0.55162    0.26141   1.00
H2       0.34059    0.50734    0.23679   1.00
C5       0.37547    0.49878    0.28857   1.00
H2       0.36441    0.46871    0.29409   1.00
H2       0.37950    0.51309    0.31750   1.00
C5       0.41412    0.49746    0.26604   1.00
H2       0.42519    0.52740    0.26019   1.00
H2       0.41042    0.48197    0.23774   1.00
H2       0.43655    0.48170    0.28339   1.00
C5       0.26663    0.48895    0.16041   1.00
C5       0.22927    0.38930    0.33994   1.00
H2       0.24307    0.50912    0.16996   1.00
H2       0.25303    0.46288    0.14643   1.00
H2       0.23942    0.41700    0.35372   1.00
H2       0.25569    0.37105    0.33401   1.00
H2       0.22626    0.30945    0.37968   1.00
H2       0.25224    0.55750    0.11352   1.00
H2       0.24537    0.51234    0.08655   1.00
C2       0.25253    0.60395    0.24957   1.00
C3       0.22105    0.58403    0.23199   1.00
O2       0.19642    0.60326    0.20660   1.00
C3       0.28167    0.58174    0.26862   1.00
H1       0.30561    0.59615    0.28322   1.00
C3a      0.21988    0.54287    0.23292   1.00
H1       0.19677    0.52798    0.21743   1.00
C3b      0.28108    0.54078    0.26841   1.00
C4       0.25008    0.52100    0.25041   1.00
O_3      0.29088    0.47833    0.19194   1.00
C5       0.16111    0.61280    0.22549   1.00
H2       0.14591    0.58609    0.23634   1.00
C5       0.13530    0.63334    0.19538   1.00
H2       0.16637    0.63274    0.25065   1.00
H2       0.12170    0.61077    0.17637   1.00
H2       0.15479    0.65101    0.17628   1.00
C5       0.10370    0.65931    0.21414   1.00
H2       0.08650    0.64189    0.23541   1.00
H2       0.08354    0.67109    0.19155   1.00
H2       0.11687    0.68506    0.22925   1.00
C5       0.29198    0.50980    0.13047   1.00
H2       0.31111    0.48782    0.11608   1.00
H2       0.31150    0.53045    0.14627   1.00
C5       0.26739    0.53197    0.10010   1.00
H2       0.28655    0.54334    0.07654   1.00
C5       0.36730    0.70130    -0.13227   1.00
H2       0.34791    0.68031    -0.14755   1.00
H2       0.38434    0.68375    -0.11099   1.00
C5       0.39489    0.72087    -0.16219   1.00
H2       0.42017    0.70161    -0.16890   1.00
H2       0.40589    0.74907    -0.15040   1.00
O_3      0.28790    0.80975    0.02000   1.00
C4       0.24966    0.74971    -0.02100   1.00
C3c      0.27881    0.73047    -0.04243   1.00
H1       0.30182    0.71514    -0.02725   1.00
C3d      0.21962    0.76904    -0.04135   1.00
C3       0.27911    0.73111    -0.08354   1.00
O2       0.30572    0.70774    -0.10248   1.00
C3       0.22026    0.77036    -0.08227   1.00
H1       0.19739    0.78671    -0.09657   1.00
C2       0.24975    0.75142    -0.10439   1.00
C5       0.26597    0.84461    0.02121   1.00
H2       0.26141    0.85521    0.05162   1.00
H2       0.23679    0.84059    0.00734   1.00
C5       0.28857    0.87547    -0.00122   1.00
H2       0.29409    0.86441    -0.03129   1.00
H2       0.31750    0.87950    0.01309   1.00
C5       0.26604    0.91412    -0.00254   1.00
H2       0.26019    0.92519    0.02740   1.00
H2       0.23774    0.91042    -0.01803   1.00
H2       0.28339    0.93655    -0.01830   1.00
C5       0.16041    0.76663    -0.01105   1.00
C5       0.33994    0.72927    -0.11070   1.00
H2       0.16996    0.74307    0.00912   1.00
H2       0.14643    0.75303    -0.03712   1.00
H2       0.35372    0.73942    -0.08300   1.00
H2       0.33401    0.75569    -0.12895   1.00
H2       0.37968    0.72626    -0.19055   1.00
H2       0.11352    0.75224    0.05750   1.00
H2       0.08655    0.74537    0.01234   1.00
C2       0.24957    0.75253    0.10395   1.00
C3       0.23199    0.72105    0.08403   1.00
O2       0.20660    0.69642    0.10326   1.00
C3       0.26862    0.78167    0.08174   1.00
H1       0.28322    0.80561    0.09615   1.00
C3a      0.23292    0.71988    0.04287   1.00
H1       0.21743    0.69677    0.02798   1.00
C3b      0.26841    0.78108    0.04078   1.00
C4       0.25041    0.75008    0.02100   1.00
O_3      0.19194    0.79088    -0.02167   1.00
C5       0.22549    0.66111    0.11280   1.00
H2       0.23634    0.64591    0.08609   1.00
C5       0.19538    0.63530    0.13334   1.00
H2       0.25065    0.66637    0.13274   1.00
H2       0.17637    0.62170    0.11077   1.00
H2       0.17628    0.65479    0.15101   1.00
C5       0.21414    0.60370    0.15931   1.00
H2       0.23541    0.58650    0.14189   1.00
H2       0.19155    0.58354    0.17109   1.00
H2       0.22925    0.61687    0.18506   1.00
C5       0.13047    0.79198    0.00980   1.00
H2       0.11608    0.81111    -0.01218   1.00
H2       0.14627    0.81150    0.03045   1.00
C5       0.10010    0.76739    0.03197   1.00
H2       0.07654    0.78655    0.04334   1.00
C5       0.86730    0.29870    0.63227   1.00
H2       0.84791    0.31969    0.64755   1.00
H2       0.88434    0.31625    0.61099   1.00
C5       0.89489    0.27913    0.66219   1.00
H2       0.92017    0.29839    0.66890   1.00
H2       0.90589    0.25093    0.65040   1.00
O_3      0.78790    0.19025    0.48000   1.00
C4       0.74966    0.25029    0.52100   1.00
C3c      0.77881    0.26953    0.54243   1.00
H1       0.80182    0.28486    0.52725   1.00
C3d      0.71962    0.23096    0.54135   1.00
C3       0.77911    0.26889    0.58354   1.00
O2       0.80572    0.29226    0.60248   1.00
C3       0.72026    0.22964    0.58227   1.00
H1       0.69739    0.21329    0.59657   1.00
C2       0.74975    0.24858    0.60439   1.00
C5       0.76597    0.15539    0.47879   1.00
H2       0.76141    0.14479    0.44838   1.00
H2       0.73679    0.15941    0.49266   1.00
C5       0.78857    0.12453    0.50122   1.00
H2       0.79409    0.13559    0.53129   1.00
H2       0.81750    0.12050    0.48691   1.00
C5       0.76604    0.08588    0.50254   1.00
H2       0.76019    0.07481    0.47260   1.00
H2       0.73774    0.08958    0.51803   1.00
H2       0.78339    0.06345    0.51830   1.00
C5       0.66041    0.23337    0.51105   1.00
C5       0.83994    0.27073    0.61070   1.00
H2       0.66996    0.25693    0.49088   1.00
H2       0.64643    0.24697    0.53712   1.00
H2       0.85372    0.26058    0.58300   1.00
H2       0.83401    0.24431    0.62895   1.00
H2       0.87968    0.27374    0.69055   1.00
H2       0.61352    0.24776    0.44250   1.00
H2       0.58655    0.25463    0.48766   1.00
C2       0.74957    0.24747    0.39605   1.00
C3       0.73199    0.27895    0.41597   1.00
O2       0.70660    0.30358    0.39674   1.00
C3       0.76862    0.21833    0.41826   1.00
H1       0.78322    0.19439    0.40385   1.00
C3a      0.73292    0.28012    0.45713   1.00
H1       0.71743    0.30323    0.47202   1.00
C3b      0.76841    0.21892    0.45922   1.00
C4       0.75041    0.24992    0.47900   1.00
O_3      0.69194    0.20912    0.52167   1.00
C5       0.72549    0.33889    0.38720   1.00
H2       0.73634    0.35409    0.41391   1.00
C5       0.69538    0.36470    0.36666   1.00
H2       0.75065    0.33363    0.36726   1.00
H2       0.67637    0.37830    0.38923   1.00
H2       0.67628    0.34521    0.34899   1.00
C5       0.71414    0.39630    0.34069   1.00
H2       0.73541    0.41350    0.35811   1.00
H2       0.69155    0.41646    0.32891   1.00
H2       0.72925    0.38313    0.31494   1.00
C5       0.63047    0.20802    0.49020   1.00
H2       0.61608    0.18889    0.51218   1.00
H2       0.64627    0.18850    0.46955   1.00
C5       0.60010    0.23261    0.46803   1.00
H2       0.57654    0.21345    0.45666   1.00
C5       0.79870    0.63227    0.36730   1.00
H2       0.81969    0.64755    0.34791   1.00
H2       0.81625    0.61099    0.38434   1.00
C5       0.77913    0.66219    0.39489   1.00
H2       0.79839    0.66890    0.42017   1.00
H2       0.75093    0.65040    0.40589   1.00
O_3      0.69025    0.48000    0.28790   1.00
C4       0.75029    0.52100    0.24966   1.00
C3c      0.76953    0.54243    0.27881   1.00
H1       0.78486    0.52725    0.30182   1.00
C3d      0.73096    0.54135    0.21962   1.00
C3       0.76889    0.58354    0.27911   1.00
O2       0.79226    0.60248    0.30572   1.00
C3       0.72964    0.58227    0.22026   1.00
H1       0.71329    0.59657    0.19739   1.00
C2       0.74858    0.60439    0.24975   1.00
C5       0.65539    0.47879    0.26597   1.00
H2       0.64479    0.44838    0.26141   1.00
H2       0.65941    0.49266    0.23679   1.00
C5       0.62453    0.50122    0.28857   1.00
H2       0.63559    0.53129    0.29409   1.00
H2       0.62050    0.48691    0.31750   1.00
C5       0.58588    0.50254    0.26604   1.00
H2       0.57481    0.47260    0.26019   1.00
H2       0.58958    0.51803    0.23774   1.00
H2       0.56345    0.51830    0.28339   1.00
C5       0.73337    0.51105    0.16041   1.00
C5       0.77073    0.61070    0.33994   1.00
H2       0.75693    0.49088    0.16996   1.00
H2       0.74697    0.53712    0.14643   1.00
H2       0.76058    0.58300    0.35372   1.00
H2       0.74431    0.62895    0.33401   1.00
H2       0.77374    0.69055    0.37968   1.00
H2       0.74776    0.44250    0.11352   1.00
H2       0.75463    0.48766    0.08655   1.00
C2       0.74747    0.39605    0.24957   1.00
C3       0.77895    0.41597    0.23199   1.00
O2       0.80358    0.39674    0.20660   1.00
C3       0.71833    0.41826    0.26862   1.00
H1       0.69439    0.40385    0.28322   1.00
C3a      0.78012    0.45713    0.23292   1.00
H1       0.80323    0.47202    0.21743   1.00
C3b      0.71892    0.45922    0.26841   1.00
C4       0.74992    0.47900    0.25041   1.00
O_3      0.70912    0.52167    0.19194   1.00
C5       0.83889    0.38720    0.22549   1.00
H2       0.85409    0.41391    0.23634   1.00
C5       0.86470    0.36666    0.19538   1.00
H2       0.83363    0.36726    0.25065   1.00
H2       0.87830    0.38923    0.17637   1.00
H2       0.84521    0.34899    0.17628   1.00
C5       0.89630    0.34069    0.21414   1.00
H2       0.91350    0.35811    0.23541   1.00
H2       0.91646    0.32891    0.19155   1.00
H2       0.88313    0.31494    0.22925   1.00
C5       0.70802    0.49020    0.13047   1.00
H2       0.68889    0.51218    0.11608   1.00
H2       0.68850    0.46955    0.14627   1.00
C5       0.73261    0.46803    0.10010   1.00
H2       0.71345    0.45666    0.07654   1.00
C5       0.36773    0.36730    0.20130   1.00
H2       0.35245    0.34791    0.18031   1.00
H2       0.38901    0.38434    0.18375   1.00
C5       0.33781    0.39489    0.22087   1.00
H2       0.33110    0.42017    0.20161   1.00
H2       0.34960    0.40589    0.24907   1.00
O_3      0.52000    0.28790    0.30975   1.00
C4       0.47900    0.24966    0.24971   1.00
C3c      0.45757    0.27881    0.23047   1.00
H1       0.47275    0.30182    0.21514   1.00
C3d      0.45865    0.21962    0.26904   1.00
C3       0.41646    0.27911    0.23111   1.00
O2       0.39752    0.30572    0.20774   1.00
C3       0.41773    0.22026    0.27036   1.00
H1       0.40343    0.19739    0.28671   1.00
C2       0.39561    0.24975    0.25142   1.00
C5       0.52121    0.26597    0.34461   1.00
H2       0.55162    0.26141    0.35521   1.00
H2       0.50734    0.23679    0.34059   1.00
C5       0.49878    0.28857    0.37547   1.00
H2       0.46871    0.29409    0.36441   1.00
H2       0.51309    0.31750    0.37950   1.00
C5       0.49746    0.26604    0.41412   1.00
H2       0.52740    0.26019    0.42519   1.00
H2       0.48197    0.23774    0.41042   1.00
H2       0.48170    0.28339    0.43655   1.00
C5       0.48895    0.16041    0.26663   1.00
C5       0.38930    0.33994    0.22927   1.00
H2       0.50912    0.16996    0.24307   1.00
H2       0.46288    0.14643    0.25303   1.00
H2       0.41700    0.35372    0.23942   1.00
H2       0.37105    0.33401    0.25569   1.00
H2       0.30945    0.37968    0.22626   1.00
H2       0.55750    0.11352    0.25224   1.00
H2       0.51234    0.08655    0.24537   1.00
C2       0.60395    0.24957    0.25253   1.00
C3       0.58403    0.23199    0.22105   1.00
O2       0.60326    0.20660    0.19642   1.00
C3       0.58174    0.26862    0.28167   1.00
H1       0.59615    0.28322    0.30561   1.00
C3a      0.54287    0.23292    0.21988   1.00
H1       0.52798    0.21743    0.19677   1.00
C3b      0.54078    0.26841    0.28108   1.00
C4       0.52100    0.25041    0.25008   1.00
O_3      0.47833    0.19194    0.29088   1.00
C5       0.61280    0.22549    0.16111   1.00
H2       0.58609    0.23634    0.14591   1.00
C5       0.63334    0.19538    0.13530   1.00
H2       0.63274    0.25065    0.16637   1.00
H2       0.61077    0.17637    0.12170   1.00
H2       0.65101    0.17628    0.15479   1.00
C5       0.65931    0.21414    0.10370   1.00
H2       0.64189    0.23541    0.08650   1.00
H2       0.67109    0.19155    0.08354   1.00
H2       0.68506    0.22925    0.11687   1.00
C5       0.50980    0.13047    0.29198   1.00
H2       0.48782    0.11608    0.31111   1.00
H2       0.53045    0.14627    0.31150   1.00
C5       0.53197    0.10010    0.26739   1.00
H2       0.54334    0.07654    0.28655   1.00
C5       1.13227    0.36730    0.29870   1.00
H2       1.14755    0.34791    0.31969   1.00
H2       1.11099    0.38434    0.31625   1.00
C5       1.16219    0.39489    0.27913   1.00
H2       1.16890    0.42017    0.29839   1.00
H2       1.15040    0.40589    0.25093   1.00
O_3      0.98000    0.28790    0.19025   1.00
C4       1.02100    0.24966    0.25029   1.00
C3c      1.04243    0.27881    0.26953   1.00
H1       1.02725    0.30182    0.28486   1.00
C3d      1.04135    0.21962    0.23096   1.00
C3       1.08354    0.27911    0.26889   1.00
O2       1.10248    0.30572    0.29226   1.00
C3       1.08227    0.22026    0.22964   1.00
H1       1.09657    0.19739    0.21329   1.00
C2       1.10439    0.24975    0.24858   1.00
C5       0.97879    0.26597    0.15539   1.00
H2       0.94838    0.26141    0.14479   1.00
H2       0.99266    0.23679    0.15941   1.00
C5       1.00122    0.28857    0.12453   1.00
H2       1.03129    0.29409    0.13559   1.00
H2       0.98691    0.31750    0.12050   1.00
C5       1.00254    0.26604    0.08588   1.00
H2       0.97260    0.26019    0.07481   1.00
H2       1.01803    0.23774    0.08958   1.00
H2       1.01830    0.28339    0.06345   1.00
C5       1.01105    0.16041    0.23337   1.00
C5       1.11070    0.33994    0.27073   1.00
H2       0.99088    0.16996    0.25693   1.00
H2       1.03712    0.14643    0.24697   1.00
H2       1.08300    0.35372    0.26058   1.00
H2       1.12895    0.33401    0.24431   1.00
H2       1.19055    0.37968    0.27374   1.00
H2       0.94250    0.11352    0.24776   1.00
H2       0.98766    0.08655    0.25463   1.00
C2       0.89605    0.24957    0.24747   1.00
C3       0.91597    0.23199    0.27895   1.00
O2       0.89674    0.20660    0.30358   1.00
C3       0.91826    0.26862    0.21833   1.00
H1       0.90385    0.28322    0.19439   1.00
C3a      0.95713    0.23292    0.28012   1.00
H1       0.97202    0.21743    0.30323   1.00
C3b      0.95922    0.26841    0.21892   1.00
C4       0.97900    0.25041    0.24992   1.00
O_3      1.02167    0.19194    0.20912   1.00
C5       0.88720    0.22549    0.33889   1.00
H2       0.91391    0.23634    0.35409   1.00
C5       0.86666    0.19538    0.36470   1.00
H2       0.86726    0.25065    0.33363   1.00
H2       0.88923    0.17637    0.37830   1.00
H2       0.84899    0.17628    0.34521   1.00
C5       0.84069    0.21414    0.39630   1.00
H2       0.85811    0.23541    0.41350   1.00
H2       0.82891    0.19155    0.41646   1.00
H2       0.81494    0.22925    0.38313   1.00
C5       0.99020    0.13047    0.20802   1.00
H2       1.01218    0.11608    0.18889   1.00
H2       0.96955    0.14627    0.18850   1.00
C5       0.96803    0.10010    0.23261   1.00
H2       0.95666    0.07654    0.21345   1.00
C5       0.70130    -0.13227   0.36730   1.00
H2       0.68031    -0.14755   0.34791   1.00
H2       0.68375    -0.11099   0.38434   1.00
C5       0.72087    -0.16219   0.39489   1.00
H2       0.70161    -0.16890   0.42017   1.00
H2       0.74907    -0.15040   0.40589   1.00
O_3      0.80975    0.02000    0.28790   1.00
C4       0.74971    -0.02100   0.24966   1.00
C3c      0.73047    -0.04243   0.27881   1.00
H1       0.71514    -0.02725   0.30182   1.00
C3d      0.76904    -0.04135   0.21962   1.00
C3       0.73111    -0.08354   0.27911   1.00
O2       0.70774    -0.10248   0.30572   1.00
C3       0.77036    -0.08227   0.22026   1.00
H1       0.78671    -0.09657   0.19739   1.00
C2       0.75142    -0.10439   0.24975   1.00
C5       0.84461    0.02121    0.26597   1.00
H2       0.85521    0.05162    0.26141   1.00
H2       0.84059    0.00734    0.23679   1.00
C5       0.87547    -0.00122   0.28857   1.00
H2       0.86441    -0.03129   0.29409   1.00
H2       0.87950    0.01309    0.31750   1.00
C5       0.91412    -0.00254   0.26604   1.00
H2       0.92519    0.02740    0.26019   1.00
H2       0.91042    -0.01803   0.23774   1.00
H2       0.93655    -0.01830   0.28339   1.00
C5       0.76663    -0.01105   0.16041   1.00
C5       0.72927    -0.11070   0.33994   1.00
H2       0.74307    0.00912    0.16996   1.00
H2       0.75303    -0.03712   0.14643   1.00
H2       0.73942    -0.08300   0.35372   1.00
H2       0.75569    -0.12895   0.33401   1.00
H2       0.72626    -0.19055   0.37968   1.00
H2       0.75224    0.05750    0.11352   1.00
H2       0.74537    0.01234    0.08655   1.00
C2       0.75253    0.10395    0.24957   1.00
C3       0.72105    0.08403    0.23199   1.00
O2       0.69642    0.10326    0.20660   1.00
C3       0.78167    0.08174    0.26862   1.00
H1       0.80561    0.09615    0.28322   1.00
C3a      0.71988    0.04287    0.23292   1.00
H1       0.69677    0.02798    0.21743   1.00
C3b      0.78108    0.04078    0.26841   1.00
C4       0.75008    0.02100    0.25041   1.00
O_3      0.79088    -0.02167   0.19194   1.00
C5       0.66111    0.11280    0.22549   1.00
H2       0.64591    0.08609    0.23634   1.00
C5       0.63530    0.13334    0.19538   1.00
H2       0.66637    0.13274    0.25065   1.00
H2       0.62170    0.11077    0.17637   1.00
H2       0.65479    0.15101    0.17628   1.00
C5       0.60370    0.15931    0.21414   1.00
H2       0.58650    0.14189    0.23541   1.00
H2       0.58354    0.17109    0.19155   1.00
H2       0.61687    0.18506    0.22925   1.00
C5       0.79198    0.00980    0.13047   1.00
H2       0.81111    -0.01218   0.11608   1.00
H2       0.81150    0.03045    0.14627   1.00
C5       0.76739    0.03197    0.10010   1.00
H2       0.78655    0.04334    0.07654   1.00
C5       0.86730    0.20130    -0.13227   1.00
H2       0.84791    0.18031    -0.14755   1.00
H2       0.88434    0.18375    -0.11099   1.00
C5       0.89489    0.22087    -0.16219   1.00
H2       0.92017    0.20161    -0.16890   1.00
H2       0.90589    0.24907    -0.15040   1.00
O_3      0.78790    0.30975    0.02000   1.00
C4       0.74966    0.24971    -0.02100   1.00
C3c      0.77881    0.23047    -0.04243   1.00
H1       0.80182    0.21514    -0.02725   1.00
C3d      0.71962    0.26904    -0.04135   1.00
C3       0.77911    0.23111    -0.08354   1.00
O2       0.80572    0.20774    -0.10248   1.00
C3       0.72026    0.27036    -0.08227   1.00
H1       0.69739    0.28671    -0.09657   1.00
C2       0.74975    0.25142    -0.10439   1.00
C5       0.76597    0.34461    0.02121   1.00
H2       0.76141    0.35521    0.05162   1.00
H2       0.73679    0.34059    0.00734   1.00
C5       0.78857    0.37547    -0.00122   1.00
H2       0.79409    0.36441    -0.03129   1.00
H2       0.81750    0.37950    0.01309   1.00
C5       0.76604    0.41412    -0.00254   1.00
H2       0.76019    0.42519    0.02740   1.00
H2       0.73774    0.41042    -0.01803   1.00
H2       0.78339    0.43655    -0.01830   1.00
C5       0.66041    0.26663    -0.01105   1.00
C5       0.83994    0.22927    -0.11070   1.00
H2       0.66996    0.24307    0.00912   1.00
H2       0.64643    0.25303    -0.03712   1.00
H2       0.85372    0.23942    -0.08300   1.00
H2       0.83401    0.25569    -0.12895   1.00
H2       0.87968    0.22626    -0.19055   1.00
H2       0.61352    0.25224    0.05750   1.00
H2       0.58655    0.24537    0.01234   1.00
C2       0.74957    0.25253    0.10395   1.00
C3       0.73199    0.22105    0.08403   1.00
O2       0.70660    0.19642    0.10326   1.00
C3       0.76862    0.28167    0.08174   1.00
H1       0.78322    0.30561    0.09615   1.00
C3a      0.73292    0.21988    0.04287   1.00
H1       0.71743    0.19677    0.02798   1.00
C3b      0.76841    0.28108    0.04078   1.00
C4       0.75041    0.25008    0.02100   1.00
O_3      0.69194    0.29088    -0.02167   1.00
C5       0.72549    0.16111    0.11280   1.00
H2       0.73634    0.14591    0.08609   1.00
C5       0.69538    0.13530    0.13334   1.00
H2       0.75065    0.16637    0.13274   1.00
H2       0.67637    0.12170    0.11077   1.00
H2       0.67628    0.15479    0.15101   1.00
C5       0.71414    0.10370    0.15931   1.00
H2       0.73541    0.08650    0.14189   1.00
H2       0.69155    0.08354    0.17109   1.00
H2       0.72925    0.11687    0.18506   1.00
C5       0.63047    0.29198    0.00980   1.00
H2       0.61608    0.31111    -0.01218   1.00
H2       0.64627    0.31150    0.03045   1.00
C5       0.60010    0.26739    0.03197   1.00
H2       0.57654    0.28655    0.04334   1.00
C5       1.03230    0.96370    1.29727   1.00
H2       1.01291    0.98469    1.31255   1.00
H2       1.04934    0.98125    1.27599   1.00
C5       1.05989    0.94413    1.32719   1.00
H2       1.08517    0.96339    1.33390   1.00
H2       1.07089    0.91593    1.31540   1.00
O_3      0.95290    0.85525    1.14500   1.00
C4       0.91466    0.91529    1.18600   1.00
C3c      0.94381    0.93453    1.20743   1.00
H1       0.96682    0.94986    1.19225   1.00
C3d      0.88462    0.89596    1.20635   1.00
C3       0.94411    0.93389    1.24854   1.00
O2       0.97072    0.95726    1.26748   1.00
C3       0.88526    0.89464    1.24727   1.00
H1       0.86239    0.87829    1.26157   1.00
C2       0.91475    0.91358    1.26939   1.00
C5       0.93097    0.82039    1.14379   1.00
H2       0.92641    0.80979    1.11338   1.00
H2       0.90179    0.82441    1.15766   1.00
C5       0.95357    0.78953    1.16622   1.00
H2       0.95909    0.80059    1.19629   1.00
H2       0.98250    0.78550    1.15191   1.00
C5       0.93104    0.75088    1.16754   1.00
H2       0.92519    0.73981    1.13760   1.00
H2       0.90274    0.75458    1.18303   1.00
H2       0.94839    0.72845    1.18330   1.00
C5       0.82541    0.89837    1.17605   1.00
C5       1.00494    0.93573    1.27570   1.00
H2       0.83496    0.92193    1.15588   1.00
H2       0.81143    0.91197    1.20212   1.00
H2       1.01872    0.92558    1.24800   1.00
H2       0.99901    0.90931    1.29395   1.00
H2       1.04468    0.93874    1.35555   1.00
H2       0.77852    0.91276    1.10750   1.00
H2       0.75155    0.91963    1.15266   1.00
C2       0.91457    0.91247    1.06105   1.00
C3       0.89699    0.94395    1.08097   1.00
O2       0.87160    0.96858    1.06174   1.00
C3       0.93362    0.88333    1.08326   1.00
H1       0.94822    0.85939    1.06885   1.00
C3a      0.89792    0.94512    1.12213   1.00
H1       0.88243    0.96823    1.13702   1.00
C3b      0.93341    0.88392    1.12422   1.00
C4       0.91541    0.91492    1.14400   1.00
O_3      0.85694    0.87412    1.18667   1.00
C5       0.89049    1.00389    1.05220   1.00
H2       0.90134    1.01909    1.07891   1.00
C5       0.86038    1.02970    1.03166   1.00
H2       0.91565    0.99863    1.03226   1.00
H2       0.84137    1.04330    1.05423   1.00
H2       0.84128    1.01021    1.01399   1.00
C5       0.87914    1.06130    1.00569   1.00
H2       0.90041    1.07850    1.02311   1.00
H2       0.85655    1.08146    0.99391   1.00
H2       0.89425    1.04813    0.97994   1.00
C5       0.79547    0.87302    1.15520   1.00
H2       0.78108    0.85389    1.17718   1.00
H2       0.81127    0.85350    1.13455   1.00
C5       0.76510    0.89761    1.13303   1.00
H2       0.74154    0.87845    1.12166   1.00
C5       0.96370    1.29727    1.03230   1.00
H2       0.98469    1.31255    1.01291   1.00
H2       0.98125    1.27599    1.04934   1.00
C5       0.94413    1.32719    1.05989   1.00
H2       0.96339    1.33390    1.08517   1.00
H2       0.91593    1.31540    1.07089   1.00
O_3      0.85525    1.14500    0.95290   1.00
C4       0.91529    1.18600    0.91466   1.00
C3c      0.93453    1.20743    0.94381   1.00
H1       0.94986    1.19225    0.96682   1.00
C3d      0.89596    1.20635    0.88462   1.00
C3       0.93389    1.24854    0.94411   1.00
O2       0.95726    1.26748    0.97072   1.00
C3       0.89464    1.24727    0.88526   1.00
H1       0.87829    1.26157    0.86239   1.00
C2       0.91358    1.26939    0.91475   1.00
C5       0.82039    1.14379    0.93097   1.00
H2       0.80979    1.11338    0.92641   1.00
H2       0.82441    1.15766    0.90179   1.00
C5       0.78953    1.16622    0.95357   1.00
H2       0.80059    1.19629    0.95909   1.00
H2       0.78550    1.15191    0.98250   1.00
C5       0.75088    1.16754    0.93104   1.00
H2       0.73981    1.13760    0.92519   1.00
H2       0.75458    1.18303    0.90274   1.00
H2       0.72845    1.18330    0.94839   1.00
C5       0.89837    1.17605    0.82541   1.00
C5       0.93573    1.27570    1.00494   1.00
H2       0.92193    1.15588    0.83496   1.00
H2       0.91197    1.20212    0.81143   1.00
H2       0.92558    1.24800    1.01872   1.00
H2       0.90931    1.29395    0.99901   1.00
H2       0.93874    1.35555    1.04468   1.00
H2       0.91276    1.10750    0.77852   1.00
H2       0.91963    1.15266    0.75155   1.00
C2       0.91247    1.06105    0.91457   1.00
C3       0.94395    1.08097    0.89699   1.00
O2       0.96858    1.06174    0.87160   1.00
C3       0.88333    1.08326    0.93362   1.00
H1       0.85939    1.06885    0.94822   1.00
C3a      0.94512    1.12213    0.89792   1.00
H1       0.96823    1.13702    0.88243   1.00
C3b      0.88392    1.12422    0.93341   1.00
C4       0.91492    1.14400    0.91541   1.00
O_3      0.87412    1.18667    0.85694   1.00
C5       1.00389    1.05220    0.89049   1.00
H2       1.01909    1.07891    0.90134   1.00
C5       1.02970    1.03166    0.86038   1.00
H2       0.99863    1.03226    0.91565   1.00
H2       1.04330    1.05423    0.84137   1.00
H2       1.01021    1.01399    0.84128   1.00
C5       1.06130    1.00569    0.87914   1.00
H2       1.07850    1.02311    0.90041   1.00
H2       1.08146    0.99391    0.85655   1.00
H2       1.04813    0.97994    0.89425   1.00
C5       0.87302    1.15520    0.79547   1.00
H2       0.85389    1.17718    0.78108   1.00
H2       0.85350    1.13455    0.81127   1.00
C5       0.89761    1.13303    0.76510   1.00
H2       0.87845    1.12166    0.74154   1.00
C5       0.53273    1.03230    0.86630   1.00
H2       0.51745    1.01291    0.84531   1.00
H2       0.55401    1.04934    0.84875   1.00
C5       0.50281    1.05989    0.88587   1.00
H2       0.49610    1.08517    0.86661   1.00
H2       0.51460    1.07089    0.91407   1.00
O_3      0.68500    0.95290    0.97475   1.00
C4       0.64400    0.91466    0.91471   1.00
C3c      0.62257    0.94381    0.89547   1.00
H1       0.63775    0.96682    0.88014   1.00
C3d      0.62365    0.88462    0.93404   1.00
C3       0.58146    0.94411    0.89611   1.00
O2       0.56252    0.97072    0.87274   1.00
C3       0.58273    0.88526    0.93536   1.00
H1       0.56843    0.86239    0.95171   1.00
C2       0.56061    0.91475    0.91642   1.00
C5       0.68621    0.93097    1.00961   1.00
H2       0.71662    0.92641    1.02021   1.00
H2       0.67234    0.90179    1.00559   1.00
C5       0.66378    0.95357    1.04047   1.00
H2       0.63371    0.95909    1.02941   1.00
H2       0.67809    0.98250    1.04450   1.00
C5       0.66246    0.93104    1.07912   1.00
H2       0.69240    0.92519    1.09019   1.00
H2       0.64697    0.90274    1.07542   1.00
H2       0.64670    0.94839    1.10155   1.00
C5       0.65395    0.82541    0.93163   1.00
C5       0.55430    1.00494    0.89427   1.00
H2       0.67412    0.83496    0.90807   1.00
H2       0.62788    0.81143    0.91803   1.00
H2       0.58200    1.01872    0.90442   1.00
H2       0.53605    0.99901    0.92069   1.00
H2       0.47445    1.04468    0.89126   1.00
H2       0.72250    0.77852    0.91724   1.00
H2       0.67734    0.75155    0.91037   1.00
C2       0.76895    0.91457    0.91753   1.00
C3       0.74903    0.89699    0.88605   1.00
O2       0.76826    0.87160    0.86142   1.00
C3       0.74674    0.93362    0.94667   1.00
H1       0.76115    0.94822    0.97061   1.00
C3a      0.70787    0.89792    0.88488   1.00
H1       0.69298    0.88243    0.86177   1.00
C3b      0.70578    0.93341    0.94608   1.00
C4       0.68600    0.91541    0.91508   1.00
O_3      0.64333    0.85694    0.95588   1.00
C5       0.77780    0.89049    0.82611   1.00
H2       0.75109    0.90134    0.81091   1.00
C5       0.79834    0.86038    0.80030   1.00
H2       0.79774    0.91565    0.83137   1.00
H2       0.77577    0.84137    0.78670   1.00
H2       0.81601    0.84128    0.81979   1.00
C5       0.82431    0.87914    0.76870   1.00
H2       0.80689    0.90041    0.75150   1.00
H2       0.83609    0.85655    0.74854   1.00
H2       0.85006    0.89425    0.78187   1.00
C5       0.67480    0.79547    0.95698   1.00
H2       0.65282    0.78108    0.97611   1.00
H2       0.69545    0.81127    0.97650   1.00
C5       0.69697    0.76510    0.93239   1.00
H2       0.70834    0.74154    0.95155   1.00
C5       1.29727    1.03230    0.96370   1.00
H2       1.31255    1.01291    0.98469   1.00
H2       1.27599    1.04934    0.98125   1.00
C5       1.32719    1.05989    0.94413   1.00
H2       1.33390    1.08517    0.96339   1.00
H2       1.31540    1.07089    0.91593   1.00
O_3      1.14500    0.95290    0.85525   1.00
C4       1.18600    0.91466    0.91529   1.00
C3c      1.20743    0.94381    0.93453   1.00
H1       1.19225    0.96682    0.94986   1.00
C3d      1.20635    0.88462    0.89596   1.00
C3       1.24854    0.94411    0.93389   1.00
O2       1.26748    0.97072    0.95726   1.00
C3       1.24727    0.88526    0.89464   1.00
H1       1.26157    0.86239    0.87829   1.00
C2       1.26939    0.91475    0.91358   1.00
C5       1.14379    0.93097    0.82039   1.00
H2       1.11338    0.92641    0.80979   1.00
H2       1.15766    0.90179    0.82441   1.00
C5       1.16622    0.95357    0.78953   1.00
H2       1.19629    0.95909    0.80059   1.00
H2       1.15191    0.98250    0.78550   1.00
C5       1.16754    0.93104    0.75088   1.00
H2       1.13760    0.92519    0.73981   1.00
H2       1.18303    0.90274    0.75458   1.00
H2       1.18330    0.94839    0.72845   1.00
C5       1.17605    0.82541    0.89837   1.00
C5       1.27570    1.00494    0.93573   1.00
H2       1.15588    0.83496    0.92193   1.00
H2       1.20212    0.81143    0.91197   1.00
H2       1.24800    1.01872    0.92558   1.00
H2       1.29395    0.99901    0.90931   1.00
H2       1.35555    1.04468    0.93874   1.00
H2       1.10750    0.77852    0.91276   1.00
H2       1.15266    0.75155    0.91963   1.00
C2       1.06105    0.91457    0.91247   1.00
C3       1.08097    0.89699    0.94395   1.00
O2       1.06174    0.87160    0.96858   1.00
C3       1.08326    0.93362    0.88333   1.00
H1       1.06885    0.94822    0.85939   1.00
C3a      1.12213    0.89792    0.94512   1.00
H1       1.13702    0.88243    0.96823   1.00
C3b      1.12422    0.93341    0.88392   1.00
C4       1.14400    0.91541    0.91492   1.00
O_3      1.18667    0.85694    0.87412   1.00
C5       1.05220    0.89049    1.00389   1.00
H2       1.07891    0.90134    1.01909   1.00
C5       1.03166    0.86038    1.02970   1.00
H2       1.03226    0.91565    0.99863   1.00
H2       1.05423    0.84137    1.04330   1.00
H2       1.01399    0.84128    1.01021   1.00
C5       1.00569    0.87914    1.06130   1.00
H2       1.02311    0.90041    1.07850   1.00
H2       0.99391    0.85655    1.08146   1.00
H2       0.97994    0.89425    1.04813   1.00
C5       1.15520    0.79547    0.87302   1.00
H2       1.17718    0.78108    0.85389   1.00
H2       1.13455    0.81127    0.85350   1.00
C5       1.13303    0.76510    0.89761   1.00
H2       1.12166    0.74154    0.87845   1.00
C5       0.86630    0.53273    1.03230   1.00
H2       0.84531    0.51745    1.01291   1.00
H2       0.84875    0.55401    1.04934   1.00
C5       0.88587    0.50281    1.05989   1.00
H2       0.86661    0.49610    1.08517   1.00
H2       0.91407    0.51460    1.07089   1.00
O_3      0.97475    0.68500    0.95290   1.00
C4       0.91471    0.64400    0.91466   1.00
C3c      0.89547    0.62257    0.94381   1.00
H1       0.88014    0.63775    0.96682   1.00
C3d      0.93404    0.62365    0.88462   1.00
C3       0.89611    0.58146    0.94411   1.00
O2       0.87274    0.56252    0.97072   1.00
C3       0.93536    0.58273    0.88526   1.00
H1       0.95171    0.56843    0.86239   1.00
C2       0.91642    0.56061    0.91475   1.00
C5       1.00961    0.68621    0.93097   1.00
H2       1.02021    0.71662    0.92641   1.00
H2       1.00559    0.67234    0.90179   1.00
C5       1.04047    0.66378    0.95357   1.00
H2       1.02941    0.63371    0.95909   1.00
H2       1.04450    0.67809    0.98250   1.00
C5       1.07912    0.66246    0.93104   1.00
H2       1.09019    0.69240    0.92519   1.00
H2       1.07542    0.64697    0.90274   1.00
H2       1.10155    0.64670    0.94839   1.00
C5       0.93163    0.65395    0.82541   1.00
C5       0.89427    0.55430    1.00494   1.00
H2       0.90807    0.67412    0.83496   1.00
H2       0.91803    0.62788    0.81143   1.00
H2       0.90442    0.58200    1.01872   1.00
H2       0.92069    0.53605    0.99901   1.00
H2       0.89126    0.47445    1.04468   1.00
H2       0.91724    0.72250    0.77852   1.00
H2       0.91037    0.67734    0.75155   1.00
C2       0.91753    0.76895    0.91457   1.00
C3       0.88605    0.74903    0.89699   1.00
O2       0.86142    0.76826    0.87160   1.00
C3       0.94667    0.74674    0.93362   1.00
H1       0.97061    0.76115    0.94822   1.00
C3a      0.88488    0.70787    0.89792   1.00
H1       0.86177    0.69298    0.88243   1.00
C3b      0.94608    0.70578    0.93341   1.00
C4       0.91508    0.68600    0.91541   1.00
O_3      0.95588    0.64333    0.85694   1.00
C5       0.82611    0.77780    0.89049   1.00
H2       0.81091    0.75109    0.90134   1.00
C5       0.80030    0.79834    0.86038   1.00
H2       0.83137    0.79774    0.91565   1.00
H2       0.78670    0.77577    0.84137   1.00
H2       0.81979    0.81601    0.84128   1.00
C5       0.76870    0.82431    0.87914   1.00
H2       0.75150    0.80689    0.90041   1.00
H2       0.74854    0.83609    0.85655   1.00
H2       0.78187    0.85006    0.89425   1.00
C5       0.95698    0.67480    0.79547   1.00
H2       0.97611    0.65282    0.78108   1.00
H2       0.97650    0.69545    0.81127   1.00
C5       0.93239    0.69697    0.76510   1.00
H2       0.95155    0.70834    0.74154   1.00
C5       1.03230    0.86630    0.53273   1.00
H2       1.01291    0.84531    0.51745   1.00
H2       1.04934    0.84875    0.55401   1.00
C5       1.05989    0.88587    0.50281   1.00
H2       1.08517    0.86661    0.49610   1.00
H2       1.07089    0.91407    0.51460   1.00
O_3      0.95290    0.97475    0.68500   1.00
C4       0.91466    0.91471    0.64400   1.00
C3c      0.94381    0.89547    0.62257   1.00
H1       0.96682    0.88014    0.63775   1.00
C3d      0.88462    0.93404    0.62365   1.00
C3       0.94411    0.89611    0.58146   1.00
O2       0.97072    0.87274    0.56252   1.00
C3       0.88526    0.93536    0.58273   1.00
H1       0.86239    0.95171    0.56843   1.00
C2       0.91475    0.91642    0.56061   1.00
C5       0.93097    1.00961    0.68621   1.00
H2       0.92641    1.02021    0.71662   1.00
H2       0.90179    1.00559    0.67234   1.00
C5       0.95357    1.04047    0.66378   1.00
H2       0.95909    1.02941    0.63371   1.00
H2       0.98250    1.04450    0.67809   1.00
C5       0.93104    1.07912    0.66246   1.00
H2       0.92519    1.09019    0.69240   1.00
H2       0.90274    1.07542    0.64697   1.00
H2       0.94839    1.10155    0.64670   1.00
C5       0.82541    0.93163    0.65395   1.00
C5       1.00494    0.89427    0.55430   1.00
H2       0.83496    0.90807    0.67412   1.00
H2       0.81143    0.91803    0.62788   1.00
H2       1.01872    0.90442    0.58200   1.00
H2       0.99901    0.92069    0.53605   1.00
H2       1.04468    0.89126    0.47445   1.00
H2       0.77852    0.91724    0.72250   1.00
H2       0.75155    0.91037    0.67734   1.00
C2       0.91457    0.91753    0.76895   1.00
C3       0.89699    0.88605    0.74903   1.00
O2       0.87160    0.86142    0.76826   1.00
C3       0.93362    0.94667    0.74674   1.00
H1       0.94822    0.97061    0.76115   1.00
C3a      0.89792    0.88488    0.70787   1.00
H1       0.88243    0.86177    0.69298   1.00
C3b      0.93341    0.94608    0.70578   1.00
C4       0.91541    0.91508    0.68600   1.00
O_3      0.85694    0.95588    0.64333   1.00
C5       0.89049    0.82611    0.77780   1.00
H2       0.90134    0.81091    0.75109   1.00
C5       0.86038    0.80030    0.79834   1.00
H2       0.91565    0.83137    0.79774   1.00
H2       0.84137    0.78670    0.77577   1.00
H2       0.84128    0.81979    0.81601   1.00
C5       0.87914    0.76870    0.82431   1.00
H2       0.90041    0.75150    0.80689   1.00
H2       0.85655    0.74854    0.83609   1.00
H2       0.89425    0.78187    0.85006   1.00
C5       0.79547    0.95698    0.67480   1.00
H2       0.78108    0.97611    0.65282   1.00
H2       0.81127    0.97650    0.69545   1.00
C5       0.76510    0.93239    0.69697   1.00
H2       0.74154    0.95155    0.70834   1.00
C5       0.53230    0.46370    1.29727   1.00
H2       0.51291    0.48469    1.31255   1.00
H2       0.54934    0.48125    1.27599   1.00
C5       0.55989    0.44413    1.32719   1.00
H2       0.58517    0.46339    1.33390   1.00
H2       0.57089    0.41593    1.31540   1.00
O_3      0.45290    0.35525    1.14500   1.00
C4       0.41466    0.41529    1.18600   1.00
C3c      0.44381    0.43453    1.20743   1.00
H1       0.46682    0.44986    1.19225   1.00
C3d      0.38462    0.39596    1.20635   1.00
C3       0.44411    0.43389    1.24854   1.00
O2       0.47072    0.45726    1.26748   1.00
C3       0.38526    0.39464    1.24727   1.00
H1       0.36239    0.37829    1.26157   1.00
C2       0.41475    0.41358    1.26939   1.00
C5       0.43097    0.32039    1.14379   1.00
H2       0.42641    0.30979    1.11338   1.00
H2       0.40179    0.32441    1.15766   1.00
C5       0.45357    0.28953    1.16622   1.00
H2       0.45909    0.30059    1.19629   1.00
H2       0.48250    0.28550    1.15191   1.00
C5       0.43104    0.25088    1.16754   1.00
H2       0.42519    0.23981    1.13760   1.00
H2       0.40274    0.25458    1.18303   1.00
H2       0.44839    0.22845    1.18330   1.00
C5       0.32541    0.39837    1.17605   1.00
C5       0.50494    0.43573    1.27570   1.00
H2       0.33496    0.42193    1.15588   1.00
H2       0.31143    0.41197    1.20212   1.00
H2       0.51872    0.42558    1.24800   1.00
H2       0.49901    0.40931    1.29395   1.00
H2       0.54468    0.43874    1.35555   1.00
H2       0.27852    0.41276    1.10750   1.00
H2       0.25155    0.41963    1.15266   1.00
C2       0.41457    0.41247    1.06105   1.00
C3       0.39699    0.44395    1.08097   1.00
O2       0.37160    0.46858    1.06174   1.00
C3       0.43362    0.38333    1.08326   1.00
H1       0.44822    0.35939    1.06885   1.00
C3a      0.39792    0.44512    1.12213   1.00
H1       0.38243    0.46823    1.13702   1.00
C3b      0.43341    0.38392    1.12422   1.00
C4       0.41541    0.41492    1.14400   1.00
O_3      0.35694    0.37412    1.18667   1.00
C5       0.39049    0.50389    1.05220   1.00
H2       0.40134    0.51909    1.07891   1.00
C5       0.36038    0.52970    1.03166   1.00
H2       0.41565    0.49863    1.03226   1.00
H2       0.34137    0.54330    1.05423   1.00
H2       0.34128    0.51021    1.01399   1.00
C5       0.37914    0.56130    1.00569   1.00
H2       0.40041    0.57850    1.02311   1.00
H2       0.35655    0.58146    0.99391   1.00
H2       0.39425    0.54813    0.97994   1.00
C5       0.29547    0.37302    1.15520   1.00
H2       0.28108    0.35389    1.17718   1.00
H2       0.31127    0.35350    1.13455   1.00
C5       0.26510    0.39761    1.13303   1.00
H2       0.24154    0.37845    1.12166   1.00
C5       0.46370    0.79727    1.03230   1.00
H2       0.48469    0.81255    1.01291   1.00
H2       0.48125    0.77599    1.04934   1.00
C5       0.44413    0.82719    1.05989   1.00
H2       0.46339    0.83390    1.08517   1.00
H2       0.41593    0.81540    1.07089   1.00
O_3      0.35525    0.64500    0.95290   1.00
C4       0.41529    0.68600    0.91466   1.00
C3c      0.43453    0.70743    0.94381   1.00
H1       0.44986    0.69225    0.96682   1.00
C3d      0.39596    0.70635    0.88462   1.00
C3       0.43389    0.74854    0.94411   1.00
O2       0.45726    0.76748    0.97072   1.00
C3       0.39464    0.74727    0.88526   1.00
H1       0.37829    0.76157    0.86239   1.00
C2       0.41358    0.76939    0.91475   1.00
C5       0.32039    0.64379    0.93097   1.00
H2       0.30979    0.61338    0.92641   1.00
H2       0.32441    0.65766    0.90179   1.00
C5       0.28953    0.66622    0.95357   1.00
H2       0.30059    0.69629    0.95909   1.00
H2       0.28550    0.65191    0.98250   1.00
C5       0.25088    0.66754    0.93104   1.00
H2       0.23981    0.63760    0.92519   1.00
H2       0.25458    0.68303    0.90274   1.00
H2       0.22845    0.68330    0.94839   1.00
C5       0.39837    0.67605    0.82541   1.00
C5       0.43573    0.77570    1.00494   1.00
H2       0.42193    0.65588    0.83496   1.00
H2       0.41197    0.70212    0.81143   1.00
H2       0.42558    0.74800    1.01872   1.00
H2       0.40931    0.79395    0.99901   1.00
H2       0.43874    0.85555    1.04468   1.00
H2       0.41276    0.60750    0.77852   1.00
H2       0.41963    0.65266    0.75155   1.00
C2       0.41247    0.56105    0.91457   1.00
C3       0.44395    0.58097    0.89699   1.00
O2       0.46858    0.56174    0.87160   1.00
C3       0.38333    0.58326    0.93362   1.00
H1       0.35939    0.56885    0.94822   1.00
C3a      0.44512    0.62213    0.89792   1.00
H1       0.46823    0.63702    0.88243   1.00
C3b      0.38392    0.62422    0.93341   1.00
C4       0.41492    0.64400    0.91541   1.00
O_3      0.37412    0.68667    0.85694   1.00
C5       0.50389    0.55220    0.89049   1.00
H2       0.51909    0.57891    0.90134   1.00
C5       0.52970    0.53166    0.86038   1.00
H2       0.49863    0.53226    0.91565   1.00
H2       0.54330    0.55423    0.84137   1.00
H2       0.51021    0.51399    0.84128   1.00
C5       0.56130    0.50569    0.87914   1.00
H2       0.57850    0.52311    0.90041   1.00
H2       0.58146    0.49391    0.85655   1.00
H2       0.54813    0.47994    0.89425   1.00
C5       0.37302    0.65520    0.79547   1.00
H2       0.35389    0.67718    0.78108   1.00
H2       0.35350    0.63455    0.81127   1.00
C5       0.39761    0.63303    0.76510   1.00
H2       0.37845    0.62166    0.74154   1.00
C5       0.03273    0.53230    0.86630   1.00
H2       0.01745    0.51291    0.84531   1.00
H2       0.05401    0.54934    0.84875   1.00
C5       0.00281    0.55989    0.88587   1.00
H2       -0.00390   0.58517    0.86661   1.00
H2       0.01460    0.57089    0.91407   1.00
O_3      0.18500    0.45290    0.97475   1.00
C4       0.14400    0.41466    0.91471   1.00
C3c      0.12257    0.44381    0.89547   1.00
H1       0.13775    0.46682    0.88014   1.00
C3d      0.12365    0.38462    0.93404   1.00
C3       0.08146    0.44411    0.89611   1.00
O2       0.06252    0.47072    0.87274   1.00
C3       0.08273    0.38526    0.93536   1.00
H1       0.06843    0.36239    0.95171   1.00
C2       0.06061    0.41475    0.91642   1.00
C5       0.18621    0.43097    1.00961   1.00
H2       0.21662    0.42641    1.02021   1.00
H2       0.17234    0.40179    1.00559   1.00
C5       0.16378    0.45357    1.04047   1.00
H2       0.13371    0.45909    1.02941   1.00
H2       0.17809    0.48250    1.04450   1.00
C5       0.16246    0.43104    1.07912   1.00
H2       0.19240    0.42519    1.09019   1.00
H2       0.14697    0.40274    1.07542   1.00
H2       0.14670    0.44839    1.10155   1.00
C5       0.15395    0.32541    0.93163   1.00
C5       0.05430    0.50494    0.89427   1.00
H2       0.17412    0.33496    0.90807   1.00
H2       0.12788    0.31143    0.91803   1.00
H2       0.08200    0.51872    0.90442   1.00
H2       0.03605    0.49901    0.92069   1.00
H2       -0.02555   0.54468    0.89126   1.00
H2       0.22250    0.27852    0.91724   1.00
H2       0.17734    0.25155    0.91037   1.00
C2       0.26895    0.41457    0.91753   1.00
C3       0.24903    0.39699    0.88605   1.00
O2       0.26826    0.37160    0.86142   1.00
C3       0.24674    0.43362    0.94667   1.00
H1       0.26115    0.44822    0.97061   1.00
C3a      0.20787    0.39792    0.88488   1.00
H1       0.19298    0.38243    0.86177   1.00
C3b      0.20578    0.43341    0.94608   1.00
C4       0.18600    0.41541    0.91508   1.00
O_3      0.14333    0.35694    0.95588   1.00
C5       0.27780    0.39049    0.82611   1.00
H2       0.25109    0.40134    0.81091   1.00
C5       0.29834    0.36038    0.80030   1.00
H2       0.29774    0.41565    0.83137   1.00
H2       0.27577    0.34137    0.78670   1.00
H2       0.31601    0.34128    0.81979   1.00
C5       0.32431    0.37914    0.76870   1.00
H2       0.30689    0.40041    0.75150   1.00
H2       0.33609    0.35655    0.74854   1.00
H2       0.35006    0.39425    0.78187   1.00
C5       0.17480    0.29547    0.95698   1.00
H2       0.15282    0.28108    0.97611   1.00
H2       0.19545    0.31127    0.97650   1.00
C5       0.19697    0.26510    0.93239   1.00
H2       0.20834    0.24154    0.95155   1.00
C5       0.79727    0.53230    0.96370   1.00
H2       0.81255    0.51291    0.98469   1.00
H2       0.77599    0.54934    0.98125   1.00
C5       0.82719    0.55989    0.94413   1.00
H2       0.83390    0.58517    0.96339   1.00
H2       0.81540    0.57089    0.91593   1.00
O_3      0.64500    0.45290    0.85525   1.00
C4       0.68600    0.41466    0.91529   1.00
C3c      0.70743    0.44381    0.93453   1.00
H1       0.69225    0.46682    0.94986   1.00
C3d      0.70635    0.38462    0.89596   1.00
C3       0.74854    0.44411    0.93389   1.00
O2       0.76748    0.47072    0.95726   1.00
C3       0.74727    0.38526    0.89464   1.00
H1       0.76157    0.36239    0.87829   1.00
C2       0.76939    0.41475    0.91358   1.00
C5       0.64379    0.43097    0.82039   1.00
H2       0.61338    0.42641    0.80979   1.00
H2       0.65766    0.40179    0.82441   1.00
C5       0.66622    0.45357    0.78953   1.00
H2       0.69629    0.45909    0.80059   1.00
H2       0.65191    0.48250    0.78550   1.00
C5       0.66754    0.43104    0.75088   1.00
H2       0.63760    0.42519    0.73981   1.00
H2       0.68303    0.40274    0.75458   1.00
H2       0.68330    0.44839    0.72845   1.00
C5       0.67605    0.32541    0.89837   1.00
C5       0.77570    0.50494    0.93573   1.00
H2       0.65588    0.33496    0.92193   1.00
H2       0.70212    0.31143    0.91197   1.00
H2       0.74800    0.51872    0.92558   1.00
H2       0.79395    0.49901    0.90931   1.00
H2       0.85555    0.54468    0.93874   1.00
H2       0.60750    0.27852    0.91276   1.00
H2       0.65266    0.25155    0.91963   1.00
C2       0.56105    0.41457    0.91247   1.00
C3       0.58097    0.39699    0.94395   1.00
O2       0.56174    0.37160    0.96858   1.00
C3       0.58326    0.43362    0.88333   1.00
H1       0.56885    0.44822    0.85939   1.00
C3a      0.62213    0.39792    0.94512   1.00
H1       0.63702    0.38243    0.96823   1.00
C3b      0.62422    0.43341    0.88392   1.00
C4       0.64400    0.41541    0.91492   1.00
O_3      0.68667    0.35694    0.87412   1.00
C5       0.55220    0.39049    1.00389   1.00
H2       0.57891    0.40134    1.01909   1.00
C5       0.53166    0.36038    1.02970   1.00
H2       0.53226    0.41565    0.99863   1.00
H2       0.55423    0.34137    1.04330   1.00
H2       0.51399    0.34128    1.01021   1.00
C5       0.50569    0.37914    1.06130   1.00
H2       0.52311    0.40041    1.07850   1.00
H2       0.49391    0.35655    1.08146   1.00
H2       0.47994    0.39425    1.04813   1.00
C5       0.65520    0.29547    0.87302   1.00
H2       0.67718    0.28108    0.85389   1.00
H2       0.63455    0.31127    0.85350   1.00
C5       0.63303    0.26510    0.89761   1.00
H2       0.62166    0.24154    0.87845   1.00
C5       0.36630    0.03273    1.03230   1.00
H2       0.34531    0.01745    1.01291   1.00
H2       0.34875    0.05401    1.04934   1.00
C5       0.38587    0.00281    1.05989   1.00
H2       0.36661    -0.00390   1.08517   1.00
H2       0.41407    0.01460    1.07089   1.00
O_3      0.47475    0.18500    0.95290   1.00
C4       0.41471    0.14400    0.91466   1.00
C3c      0.39547    0.12257    0.94381   1.00
H1       0.38014    0.13775    0.96682   1.00
C3d      0.43404    0.12365    0.88462   1.00
C3       0.39611    0.08146    0.94411   1.00
O2       0.37274    0.06252    0.97072   1.00
C3       0.43536    0.08273    0.88526   1.00
H1       0.45171    0.06843    0.86239   1.00
C2       0.41642    0.06061    0.91475   1.00
C5       0.50961    0.18621    0.93097   1.00
H2       0.52021    0.21662    0.92641   1.00
H2       0.50559    0.17234    0.90179   1.00
C5       0.54047    0.16378    0.95357   1.00
H2       0.52941    0.13371    0.95909   1.00
H2       0.54450    0.17809    0.98250   1.00
C5       0.57912    0.16246    0.93104   1.00
H2       0.59019    0.19240    0.92519   1.00
H2       0.57542    0.14697    0.90274   1.00
H2       0.60155    0.14670    0.94839   1.00
C5       0.43163    0.15395    0.82541   1.00
C5       0.39427    0.05430    1.00494   1.00
H2       0.40807    0.17412    0.83496   1.00
H2       0.41803    0.12788    0.81143   1.00
H2       0.40442    0.08200    1.01872   1.00
H2       0.42069    0.03605    0.99901   1.00
H2       0.39126    -0.02555   1.04468   1.00
H2       0.41724    0.22250    0.77852   1.00
H2       0.41037    0.17734    0.75155   1.00
C2       0.41753    0.26895    0.91457   1.00
C3       0.38605    0.24903    0.89699   1.00
O2       0.36142    0.26826    0.87160   1.00
C3       0.44667    0.24674    0.93362   1.00
H1       0.47061    0.26115    0.94822   1.00
C3a      0.38488    0.20787    0.89792   1.00
H1       0.36177    0.19298    0.88243   1.00
C3b      0.44608    0.20578    0.93341   1.00
C4       0.41508    0.18600    0.91541   1.00
O_3      0.45588    0.14333    0.85694   1.00
C5       0.32611    0.27780    0.89049   1.00
H2       0.31091    0.25109    0.90134   1.00
C5       0.30030    0.29834    0.86038   1.00
H2       0.33137    0.29774    0.91565   1.00
H2       0.28670    0.27577    0.84137   1.00
H2       0.31979    0.31601    0.84128   1.00
C5       0.26870    0.32431    0.87914   1.00
H2       0.25150    0.30689    0.90041   1.00
H2       0.24854    0.33609    0.85655   1.00
H2       0.28187    0.35006    0.89425   1.00
C5       0.45698    0.17480    0.79547   1.00
H2       0.47611    0.15282    0.78108   1.00
H2       0.47650    0.19545    0.81127   1.00
C5       0.43239    0.19697    0.76510   1.00
H2       0.45155    0.20834    0.74154   1.00
C5       0.53230    0.36630    0.53273   1.00
H2       0.51291    0.34531    0.51745   1.00
H2       0.54934    0.34875    0.55401   1.00
C5       0.55989    0.38587    0.50281   1.00
H2       0.58517    0.36661    0.49610   1.00
H2       0.57089    0.41407    0.51460   1.00
O_3      0.45290    0.47475    0.68500   1.00
C4       0.41466    0.41471    0.64400   1.00
C3c      0.44381    0.39547    0.62257   1.00
H1       0.46682    0.38014    0.63775   1.00
C3d      0.38462    0.43404    0.62365   1.00
C3       0.44411    0.39611    0.58146   1.00
O2       0.47072    0.37274    0.56252   1.00
C3       0.38526    0.43536    0.58273   1.00
H1       0.36239    0.45171    0.56843   1.00
C2       0.41475    0.41642    0.56061   1.00
C5       0.43097    0.50961    0.68621   1.00
H2       0.42641    0.52021    0.71662   1.00
H2       0.40179    0.50559    0.67234   1.00
C5       0.45357    0.54047    0.66378   1.00
H2       0.45909    0.52941    0.63371   1.00
H2       0.48250    0.54450    0.67809   1.00
C5       0.43104    0.57912    0.66246   1.00
H2       0.42519    0.59019    0.69240   1.00
H2       0.40274    0.57542    0.64697   1.00
H2       0.44839    0.60155    0.64670   1.00
C5       0.32541    0.43163    0.65395   1.00
C5       0.50494    0.39427    0.55430   1.00
H2       0.33496    0.40807    0.67412   1.00
H2       0.31143    0.41803    0.62788   1.00
H2       0.51872    0.40442    0.58200   1.00
H2       0.49901    0.42069    0.53605   1.00
H2       0.54468    0.39126    0.47445   1.00
H2       0.27852    0.41724    0.72250   1.00
H2       0.25155    0.41037    0.67734   1.00
C2       0.41457    0.41753    0.76895   1.00
C3       0.39699    0.38605    0.74903   1.00
O2       0.37160    0.36142    0.76826   1.00
C3       0.43362    0.44667    0.74674   1.00
H1       0.44822    0.47061    0.76115   1.00
C3a      0.39792    0.38488    0.70787   1.00
H1       0.38243    0.36177    0.69298   1.00
C3b      0.43341    0.44608    0.70578   1.00
C4       0.41541    0.41508    0.68600   1.00
O_3      0.35694    0.45588    0.64333   1.00
C5       0.39049    0.32611    0.77780   1.00
H2       0.40134    0.31091    0.75109   1.00
C5       0.36038    0.30030    0.79834   1.00
H2       0.41565    0.33137    0.79774   1.00
H2       0.34137    0.28670    0.77577   1.00
H2       0.34128    0.31979    0.81601   1.00
C5       0.37914    0.26870    0.82431   1.00
H2       0.40041    0.25150    0.80689   1.00
H2       0.35655    0.24854    0.83609   1.00
H2       0.39425    0.28187    0.85006   1.00
C5       0.29547    0.45698    0.67480   1.00
H2       0.28108    0.47611    0.65282   1.00
H2       0.31127    0.47650    0.69545   1.00
C5       0.26510    0.43239    0.69697   1.00
H2       0.24154    0.45155    0.70834   1.00
C5       0.53230    0.96370    0.79727   1.00
H2       0.51291    0.98469    0.81255   1.00
H2       0.54934    0.98125    0.77599   1.00
C5       0.55989    0.94413    0.82719   1.00
H2       0.58517    0.96339    0.83390   1.00
H2       0.57089    0.91593    0.81540   1.00
O_3      0.45290    0.85525    0.64500   1.00
C4       0.41466    0.91529    0.68600   1.00
C3c      0.44381    0.93453    0.70743   1.00
H1       0.46682    0.94986    0.69225   1.00
C3d      0.38462    0.89596    0.70635   1.00
C3       0.44411    0.93389    0.74854   1.00
O2       0.47072    0.95726    0.76748   1.00
C3       0.38526    0.89464    0.74727   1.00
H1       0.36239    0.87829    0.76157   1.00
C2       0.41475    0.91358    0.76939   1.00
C5       0.43097    0.82039    0.64379   1.00
H2       0.42641    0.80979    0.61338   1.00
H2       0.40179    0.82441    0.65766   1.00
C5       0.45357    0.78953    0.66622   1.00
H2       0.45909    0.80059    0.69629   1.00
H2       0.48250    0.78550    0.65191   1.00
C5       0.43104    0.75088    0.66754   1.00
H2       0.42519    0.73981    0.63760   1.00
H2       0.40274    0.75458    0.68303   1.00
H2       0.44839    0.72845    0.68330   1.00
C5       0.32541    0.89837    0.67605   1.00
C5       0.50494    0.93573    0.77570   1.00
H2       0.33496    0.92193    0.65588   1.00
H2       0.31143    0.91197    0.70212   1.00
H2       0.51872    0.92558    0.74800   1.00
H2       0.49901    0.90931    0.79395   1.00
H2       0.54468    0.93874    0.85555   1.00
H2       0.27852    0.91276    0.60750   1.00
H2       0.25155    0.91963    0.65266   1.00
C2       0.41457    0.91247    0.56105   1.00
C3       0.39699    0.94395    0.58097   1.00
O2       0.37160    0.96858    0.56174   1.00
C3       0.43362    0.88333    0.58326   1.00
H1       0.44822    0.85939    0.56885   1.00
C3a      0.39792    0.94512    0.62213   1.00
H1       0.38243    0.96823    0.63702   1.00
C3b      0.43341    0.88392    0.62422   1.00
C4       0.41541    0.91492    0.64400   1.00
O_3      0.35694    0.87412    0.68667   1.00
C5       0.39049    1.00389    0.55220   1.00
H2       0.40134    1.01909    0.57891   1.00
C5       0.36038    1.02970    0.53166   1.00
H2       0.41565    0.99863    0.53226   1.00
H2       0.34137    1.04330    0.55423   1.00
H2       0.34128    1.01021    0.51399   1.00
C5       0.37914    1.06130    0.50569   1.00
H2       0.40041    1.07850    0.52311   1.00
H2       0.35655    1.08146    0.49391   1.00
H2       0.39425    1.04813    0.47994   1.00
C5       0.29547    0.87302    0.65520   1.00
H2       0.28108    0.85389    0.67718   1.00
H2       0.31127    0.85350    0.63455   1.00
C5       0.26510    0.89761    0.63303   1.00
H2       0.24154    0.87845    0.62166   1.00
C5       0.46370    1.29727    0.53230   1.00
H2       0.48469    1.31255    0.51291   1.00
H2       0.48125    1.27599    0.54934   1.00
C5       0.44413    1.32719    0.55989   1.00
H2       0.46339    1.33390    0.58517   1.00
H2       0.41593    1.31540    0.57089   1.00
O_3      0.35525    1.14500    0.45290   1.00
C4       0.41529    1.18600    0.41466   1.00
C3c      0.43453    1.20743    0.44381   1.00
H1       0.44986    1.19225    0.46682   1.00
C3d      0.39596    1.20635    0.38462   1.00
C3       0.43389    1.24854    0.44411   1.00
O2       0.45726    1.26748    0.47072   1.00
C3       0.39464    1.24727    0.38526   1.00
H1       0.37829    1.26157    0.36239   1.00
C2       0.41358    1.26939    0.41475   1.00
C5       0.32039    1.14379    0.43097   1.00
H2       0.30979    1.11338    0.42641   1.00
H2       0.32441    1.15766    0.40179   1.00
C5       0.28953    1.16622    0.45357   1.00
H2       0.30059    1.19629    0.45909   1.00
H2       0.28550    1.15191    0.48250   1.00
C5       0.25088    1.16754    0.43104   1.00
H2       0.23981    1.13760    0.42519   1.00
H2       0.25458    1.18303    0.40274   1.00
H2       0.22845    1.18330    0.44839   1.00
C5       0.39837    1.17605    0.32541   1.00
C5       0.43573    1.27570    0.50494   1.00
H2       0.42193    1.15588    0.33496   1.00
H2       0.41197    1.20212    0.31143   1.00
H2       0.42558    1.24800    0.51872   1.00
H2       0.40931    1.29395    0.49901   1.00
H2       0.43874    1.35555    0.54468   1.00
H2       0.41276    1.10750    0.27852   1.00
H2       0.41963    1.15266    0.25155   1.00
C2       0.41247    1.06105    0.41457   1.00
C3       0.44395    1.08097    0.39699   1.00
O2       0.46858    1.06174    0.37160   1.00
C3       0.38333    1.08326    0.43362   1.00
H1       0.35939    1.06885    0.44822   1.00
C3a      0.44512    1.12213    0.39792   1.00
H1       0.46823    1.13702    0.38243   1.00
C3b      0.38392    1.12422    0.43341   1.00
C4       0.41492    1.14400    0.41541   1.00
O_3      0.37412    1.18667    0.35694   1.00
C5       0.50389    1.05220    0.39049   1.00
H2       0.51909    1.07891    0.40134   1.00
C5       0.52970    1.03166    0.36038   1.00
H2       0.49863    1.03226    0.41565   1.00
H2       0.54330    1.05423    0.34137   1.00
H2       0.51021    1.01399    0.34128   1.00
C5       0.56130    1.00569    0.37914   1.00
H2       0.57850    1.02311    0.40041   1.00
H2       0.58146    0.99391    0.35655   1.00
H2       0.54813    0.97994    0.39425   1.00
C5       0.37302    1.15520    0.29547   1.00
H2       0.35389    1.17718    0.28108   1.00
H2       0.35350    1.13455    0.31127   1.00
C5       0.39761    1.13303    0.26510   1.00
H2       0.37845    1.12166    0.24154   1.00
C5       0.03273    1.03230    0.36630   1.00
H2       0.01745    1.01291    0.34531   1.00
H2       0.05401    1.04934    0.34875   1.00
C5       0.00281    1.05989    0.38587   1.00
H2       -0.00390   1.08517    0.36661   1.00
H2       0.01460    1.07089    0.41407   1.00
O_3      0.18500    0.95290    0.47475   1.00
C4       0.14400    0.91466    0.41471   1.00
C3c      0.12257    0.94381    0.39547   1.00
H1       0.13775    0.96682    0.38014   1.00
C3d      0.12365    0.88462    0.43404   1.00
C3       0.08146    0.94411    0.39611   1.00
O2       0.06252    0.97072    0.37274   1.00
C3       0.08273    0.88526    0.43536   1.00
H1       0.06843    0.86239    0.45171   1.00
C2       0.06061    0.91475    0.41642   1.00
C5       0.18621    0.93097    0.50961   1.00
H2       0.21662    0.92641    0.52021   1.00
H2       0.17234    0.90179    0.50559   1.00
C5       0.16378    0.95357    0.54047   1.00
H2       0.13371    0.95909    0.52941   1.00
H2       0.17809    0.98250    0.54450   1.00
C5       0.16246    0.93104    0.57912   1.00
H2       0.19240    0.92519    0.59019   1.00
H2       0.14697    0.90274    0.57542   1.00
H2       0.14670    0.94839    0.60155   1.00
C5       0.15395    0.82541    0.43163   1.00
C5       0.05430    1.00494    0.39427   1.00
H2       0.17412    0.83496    0.40807   1.00
H2       0.12788    0.81143    0.41803   1.00
H2       0.08200    1.01872    0.40442   1.00
H2       0.03605    0.99901    0.42069   1.00
H2       -0.02555   1.04468    0.39126   1.00
H2       0.22250    0.77852    0.41724   1.00
H2       0.17734    0.75155    0.41037   1.00
C2       0.26895    0.91457    0.41753   1.00
C3       0.24903    0.89699    0.38605   1.00
O2       0.26826    0.87160    0.36142   1.00
C3       0.24674    0.93362    0.44667   1.00
H1       0.26115    0.94822    0.47061   1.00
C3a      0.20787    0.89792    0.38488   1.00
H1       0.19298    0.88243    0.36177   1.00
C3b      0.20578    0.93341    0.44608   1.00
C4       0.18600    0.91541    0.41508   1.00
O_3      0.14333    0.85694    0.45588   1.00
C5       0.27780    0.89049    0.32611   1.00
H2       0.25109    0.90134    0.31091   1.00
C5       0.29834    0.86038    0.30030   1.00
H2       0.29774    0.91565    0.33137   1.00
H2       0.27577    0.84137    0.28670   1.00
H2       0.31601    0.84128    0.31979   1.00
C5       0.32431    0.87914    0.26870   1.00
H2       0.30689    0.90041    0.25150   1.00
H2       0.33609    0.85655    0.24854   1.00
H2       0.35006    0.89425    0.28187   1.00
C5       0.17480    0.79547    0.45698   1.00
H2       0.15282    0.78108    0.47611   1.00
H2       0.19545    0.81127    0.47650   1.00
C5       0.19697    0.76510    0.43239   1.00
H2       0.20834    0.74154    0.45155   1.00
C5       0.79727    1.03230    0.46370   1.00
H2       0.81255    1.01291    0.48469   1.00
H2       0.77599    1.04934    0.48125   1.00
C5       0.82719    1.05989    0.44413   1.00
H2       0.83390    1.08517    0.46339   1.00
H2       0.81540    1.07089    0.41593   1.00
O_3      0.64500    0.95290    0.35525   1.00
C4       0.68600    0.91466    0.41529   1.00
C3c      0.70743    0.94381    0.43453   1.00
H1       0.69225    0.96682    0.44986   1.00
C3d      0.70635    0.88462    0.39596   1.00
C3       0.74854    0.94411    0.43389   1.00
O2       0.76748    0.97072    0.45726   1.00
C3       0.74727    0.88526    0.39464   1.00
H1       0.76157    0.86239    0.37829   1.00
C2       0.76939    0.91475    0.41358   1.00
C5       0.64379    0.93097    0.32039   1.00
H2       0.61338    0.92641    0.30979   1.00
H2       0.65766    0.90179    0.32441   1.00
C5       0.66622    0.95357    0.28953   1.00
H2       0.69629    0.95909    0.30059   1.00
H2       0.65191    0.98250    0.28550   1.00
C5       0.66754    0.93104    0.25088   1.00
H2       0.63760    0.92519    0.23981   1.00
H2       0.68303    0.90274    0.25458   1.00
H2       0.68330    0.94839    0.22845   1.00
C5       0.67605    0.82541    0.39837   1.00
C5       0.77570    1.00494    0.43573   1.00
H2       0.65588    0.83496    0.42193   1.00
H2       0.70212    0.81143    0.41197   1.00
H2       0.74800    1.01872    0.42558   1.00
H2       0.79395    0.99901    0.40931   1.00
H2       0.85555    1.04468    0.43874   1.00
H2       0.60750    0.77852    0.41276   1.00
H2       0.65266    0.75155    0.41963   1.00
C2       0.56105    0.91457    0.41247   1.00
C3       0.58097    0.89699    0.44395   1.00
O2       0.56174    0.87160    0.46858   1.00
C3       0.58326    0.93362    0.38333   1.00
H1       0.56885    0.94822    0.35939   1.00
C3a      0.62213    0.89792    0.44512   1.00
H1       0.63702    0.88243    0.46823   1.00
C3b      0.62422    0.93341    0.38392   1.00
C4       0.64400    0.91541    0.41492   1.00
O_3      0.68667    0.85694    0.37412   1.00
C5       0.55220    0.89049    0.50389   1.00
H2       0.57891    0.90134    0.51909   1.00
C5       0.53166    0.86038    0.52970   1.00
H2       0.53226    0.91565    0.49863   1.00
H2       0.55423    0.84137    0.54330   1.00
H2       0.51399    0.84128    0.51021   1.00
C5       0.50569    0.87914    0.56130   1.00
H2       0.52311    0.90041    0.57850   1.00
H2       0.49391    0.85655    0.58146   1.00
H2       0.47994    0.89425    0.54813   1.00
C5       0.65520    0.79547    0.37302   1.00
H2       0.67718    0.78108    0.35389   1.00
H2       0.63455    0.81127    0.35350   1.00
C5       0.63303    0.76510    0.39761   1.00
H2       0.62166    0.74154    0.37845   1.00
C5       0.36630    0.53273    0.53230   1.00
H2       0.34531    0.51745    0.51291   1.00
H2       0.34875    0.55401    0.54934   1.00
C5       0.38587    0.50281    0.55989   1.00
H2       0.36661    0.49610    0.58517   1.00
H2       0.41407    0.51460    0.57089   1.00
O_3      0.47475    0.68500    0.45290   1.00
C4       0.41471    0.64400    0.41466   1.00
C3c      0.39547    0.62257    0.44381   1.00
H1       0.38014    0.63775    0.46682   1.00
C3d      0.43404    0.62365    0.38462   1.00
C3       0.39611    0.58146    0.44411   1.00
O2       0.37274    0.56252    0.47072   1.00
C3       0.43536    0.58273    0.38526   1.00
H1       0.45171    0.56843    0.36239   1.00
C2       0.41642    0.56061    0.41475   1.00
C5       0.50961    0.68621    0.43097   1.00
H2       0.52021    0.71662    0.42641   1.00
H2       0.50559    0.67234    0.40179   1.00
C5       0.54047    0.66378    0.45357   1.00
H2       0.52941    0.63371    0.45909   1.00
H2       0.54450    0.67809    0.48250   1.00
C5       0.57912    0.66246    0.43104   1.00
H2       0.59019    0.69240    0.42519   1.00
H2       0.57542    0.64697    0.40274   1.00
H2       0.60155    0.64670    0.44839   1.00
C5       0.43163    0.65395    0.32541   1.00
C5       0.39427    0.55430    0.50494   1.00
H2       0.40807    0.67412    0.33496   1.00
H2       0.41803    0.62788    0.31143   1.00
H2       0.40442    0.58200    0.51872   1.00
H2       0.42069    0.53605    0.49901   1.00
H2       0.39126    0.47445    0.54468   1.00
H2       0.41724    0.72250    0.27852   1.00
H2       0.41037    0.67734    0.25155   1.00
C2       0.41753    0.76895    0.41457   1.00
C3       0.38605    0.74903    0.39699   1.00
O2       0.36142    0.76826    0.37160   1.00
C3       0.44667    0.74674    0.43362   1.00
H1       0.47061    0.76115    0.44822   1.00
C3a      0.38488    0.70787    0.39792   1.00
H1       0.36177    0.69298    0.38243   1.00
C3b      0.44608    0.70578    0.43341   1.00
C4       0.41508    0.68600    0.41541   1.00
O_3      0.45588    0.64333    0.35694   1.00
C5       0.32611    0.77780    0.39049   1.00
H2       0.31091    0.75109    0.40134   1.00
C5       0.30030    0.79834    0.36038   1.00
H2       0.33137    0.79774    0.41565   1.00
H2       0.28670    0.77577    0.34137   1.00
H2       0.31979    0.81601    0.34128   1.00
C5       0.26870    0.82431    0.37914   1.00
H2       0.25150    0.80689    0.40041   1.00
H2       0.24854    0.83609    0.35655   1.00
H2       0.28187    0.85006    0.39425   1.00
C5       0.45698    0.67480    0.29547   1.00
H2       0.47611    0.65282    0.28108   1.00
H2       0.47650    0.69545    0.31127   1.00
C5       0.43239    0.69697    0.26510   1.00
H2       0.45155    0.70834    0.24154   1.00
C5       0.53230    0.86630    0.03273   1.00
H2       0.51291    0.84531    0.01745   1.00
H2       0.54934    0.84875    0.05401   1.00
C5       0.55989    0.88587    0.00281   1.00
H2       0.58517    0.86661    -0.00390   1.00
H2       0.57089    0.91407    0.01460   1.00
O_3      0.45290    0.97475    0.18500   1.00
C4       0.41466    0.91471    0.14400   1.00
C3c      0.44381    0.89547    0.12257   1.00
H1       0.46682    0.88014    0.13775   1.00
C3d      0.38462    0.93404    0.12365   1.00
C3       0.44411    0.89611    0.08146   1.00
O2       0.47072    0.87274    0.06252   1.00
C3       0.38526    0.93536    0.08273   1.00
H1       0.36239    0.95171    0.06843   1.00
C2       0.41475    0.91642    0.06061   1.00
C5       0.43097    1.00961    0.18621   1.00
H2       0.42641    1.02021    0.21662   1.00
H2       0.40179    1.00559    0.17234   1.00
C5       0.45357    1.04047    0.16378   1.00
H2       0.45909    1.02941    0.13371   1.00
H2       0.48250    1.04450    0.17809   1.00
C5       0.43104    1.07912    0.16246   1.00
H2       0.42519    1.09019    0.19240   1.00
H2       0.40274    1.07542    0.14697   1.00
H2       0.44839    1.10155    0.14670   1.00
C5       0.32541    0.93163    0.15395   1.00
C5       0.50494    0.89427    0.05430   1.00
H2       0.33496    0.90807    0.17412   1.00
H2       0.31143    0.91803    0.12788   1.00
H2       0.51872    0.90442    0.08200   1.00
H2       0.49901    0.92069    0.03605   1.00
H2       0.54468    0.89126    -0.02555   1.00
H2       0.27852    0.91724    0.22250   1.00
H2       0.25155    0.91037    0.17734   1.00
C2       0.41457    0.91753    0.26895   1.00
C3       0.39699    0.88605    0.24903   1.00
O2       0.37160    0.86142    0.26826   1.00
C3       0.43362    0.94667    0.24674   1.00
H1       0.44822    0.97061    0.26115   1.00
C3a      0.39792    0.88488    0.20787   1.00
H1       0.38243    0.86177    0.19298   1.00
C3b      0.43341    0.94608    0.20578   1.00
C4       0.41541    0.91508    0.18600   1.00
O_3      0.35694    0.95588    0.14333   1.00
C5       0.39049    0.82611    0.27780   1.00
H2       0.40134    0.81091    0.25109   1.00
C5       0.36038    0.80030    0.29834   1.00
H2       0.41565    0.83137    0.29774   1.00
H2       0.34137    0.78670    0.27577   1.00
H2       0.34128    0.81979    0.31601   1.00
C5       0.37914    0.76870    0.32431   1.00
H2       0.40041    0.75150    0.30689   1.00
H2       0.35655    0.74854    0.33609   1.00
H2       0.39425    0.78187    0.35006   1.00
C5       0.29547    0.95698    0.17480   1.00
H2       0.28108    0.97611    0.15282   1.00
H2       0.31127    0.97650    0.19545   1.00
C5       0.26510    0.93239    0.19697   1.00
H2       0.24154    0.95155    0.20834   1.00
C5       1.03230    0.46370    0.79727   1.00
H2       1.01291    0.48469    0.81255   1.00
H2       1.04934    0.48125    0.77599   1.00
C5       1.05989    0.44413    0.82719   1.00
H2       1.08517    0.46339    0.83390   1.00
H2       1.07089    0.41593    0.81540   1.00
O_3      0.95290    0.35525    0.64500   1.00
C4       0.91466    0.41529    0.68600   1.00
C3c      0.94381    0.43453    0.70743   1.00
H1       0.96682    0.44986    0.69225   1.00
C3d      0.88462    0.39596    0.70635   1.00
C3       0.94411    0.43389    0.74854   1.00
O2       0.97072    0.45726    0.76748   1.00
C3       0.88526    0.39464    0.74727   1.00
H1       0.86239    0.37829    0.76157   1.00
C2       0.91475    0.41358    0.76939   1.00
C5       0.93097    0.32039    0.64379   1.00
H2       0.92641    0.30979    0.61338   1.00
H2       0.90179    0.32441    0.65766   1.00
C5       0.95357    0.28953    0.66622   1.00
H2       0.95909    0.30059    0.69629   1.00
H2       0.98250    0.28550    0.65191   1.00
C5       0.93104    0.25088    0.66754   1.00
H2       0.92519    0.23981    0.63760   1.00
H2       0.90274    0.25458    0.68303   1.00
H2       0.94839    0.22845    0.68330   1.00
C5       0.82541    0.39837    0.67605   1.00
C5       1.00494    0.43573    0.77570   1.00
H2       0.83496    0.42193    0.65588   1.00
H2       0.81143    0.41197    0.70212   1.00
H2       1.01872    0.42558    0.74800   1.00
H2       0.99901    0.40931    0.79395   1.00
H2       1.04468    0.43874    0.85555   1.00
H2       0.77852    0.41276    0.60750   1.00
H2       0.75155    0.41963    0.65266   1.00
C2       0.91457    0.41247    0.56105   1.00
C3       0.89699    0.44395    0.58097   1.00
O2       0.87160    0.46858    0.56174   1.00
C3       0.93362    0.38333    0.58326   1.00
H1       0.94822    0.35939    0.56885   1.00
C3a      0.89792    0.44512    0.62213   1.00
H1       0.88243    0.46823    0.63702   1.00
C3b      0.93341    0.38392    0.62422   1.00
C4       0.91541    0.41492    0.64400   1.00
O_3      0.85694    0.37412    0.68667   1.00
C5       0.89049    0.50389    0.55220   1.00
H2       0.90134    0.51909    0.57891   1.00
C5       0.86038    0.52970    0.53166   1.00
H2       0.91565    0.49863    0.53226   1.00
H2       0.84137    0.54330    0.55423   1.00
H2       0.84128    0.51021    0.51399   1.00
C5       0.87914    0.56130    0.50569   1.00
H2       0.90041    0.57850    0.52311   1.00
H2       0.85655    0.58146    0.49391   1.00
H2       0.89425    0.54813    0.47994   1.00
C5       0.79547    0.37302    0.65520   1.00
H2       0.78108    0.35389    0.67718   1.00
H2       0.81127    0.35350    0.63455   1.00
C5       0.76510    0.39761    0.63303   1.00
H2       0.74154    0.37845    0.62166   1.00
C5       0.96370    0.79727    0.53230   1.00
H2       0.98469    0.81255    0.51291   1.00
H2       0.98125    0.77599    0.54934   1.00
C5       0.94413    0.82719    0.55989   1.00
H2       0.96339    0.83390    0.58517   1.00
H2       0.91593    0.81540    0.57089   1.00
O_3      0.85525    0.64500    0.45290   1.00
C4       0.91529    0.68600    0.41466   1.00
C3c      0.93453    0.70743    0.44381   1.00
H1       0.94986    0.69225    0.46682   1.00
C3d      0.89596    0.70635    0.38462   1.00
C3       0.93389    0.74854    0.44411   1.00
O2       0.95726    0.76748    0.47072   1.00
C3       0.89464    0.74727    0.38526   1.00
H1       0.87829    0.76157    0.36239   1.00
C2       0.91358    0.76939    0.41475   1.00
C5       0.82039    0.64379    0.43097   1.00
H2       0.80979    0.61338    0.42641   1.00
H2       0.82441    0.65766    0.40179   1.00
C5       0.78953    0.66622    0.45357   1.00
H2       0.80059    0.69629    0.45909   1.00
H2       0.78550    0.65191    0.48250   1.00
C5       0.75088    0.66754    0.43104   1.00
H2       0.73981    0.63760    0.42519   1.00
H2       0.75458    0.68303    0.40274   1.00
H2       0.72845    0.68330    0.44839   1.00
C5       0.89837    0.67605    0.32541   1.00
C5       0.93573    0.77570    0.50494   1.00
H2       0.92193    0.65588    0.33496   1.00
H2       0.91197    0.70212    0.31143   1.00
H2       0.92558    0.74800    0.51872   1.00
H2       0.90931    0.79395    0.49901   1.00
H2       0.93874    0.85555    0.54468   1.00
H2       0.91276    0.60750    0.27852   1.00
H2       0.91963    0.65266    0.25155   1.00
C2       0.91247    0.56105    0.41457   1.00
C3       0.94395    0.58097    0.39699   1.00
O2       0.96858    0.56174    0.37160   1.00
C3       0.88333    0.58326    0.43362   1.00
H1       0.85939    0.56885    0.44822   1.00
C3a      0.94512    0.62213    0.39792   1.00
H1       0.96823    0.63702    0.38243   1.00
C3b      0.88392    0.62422    0.43341   1.00
C4       0.91492    0.64400    0.41541   1.00
O_3      0.87412    0.68667    0.35694   1.00
C5       1.00389    0.55220    0.39049   1.00
H2       1.01909    0.57891    0.40134   1.00
C5       1.02970    0.53166    0.36038   1.00
H2       0.99863    0.53226    0.41565   1.00
H2       1.04330    0.55423    0.34137   1.00
H2       1.01021    0.51399    0.34128   1.00
C5       1.06130    0.50569    0.37914   1.00
H2       1.07850    0.52311    0.40041   1.00
H2       1.08146    0.49391    0.35655   1.00
H2       1.04813    0.47994    0.39425   1.00
C5       0.87302    0.65520    0.29547   1.00
H2       0.85389    0.67718    0.28108   1.00
H2       0.85350    0.63455    0.31127   1.00
C5       0.89761    0.63303    0.26510   1.00
H2       0.87845    0.62166    0.24154   1.00
C5       0.53273    0.53230    0.36630   1.00
H2       0.51745    0.51291    0.34531   1.00
H2       0.55401    0.54934    0.34875   1.00
C5       0.50281    0.55989    0.38587   1.00
H2       0.49610    0.58517    0.36661   1.00
H2       0.51460    0.57089    0.41407   1.00
O_3      0.68500    0.45290    0.47475   1.00
C4       0.64400    0.41466    0.41471   1.00
C3c      0.62257    0.44381    0.39547   1.00
H1       0.63775    0.46682    0.38014   1.00
C3d      0.62365    0.38462    0.43404   1.00
C3       0.58146    0.44411    0.39611   1.00
O2       0.56252    0.47072    0.37274   1.00
C3       0.58273    0.38526    0.43536   1.00
H1       0.56843    0.36239    0.45171   1.00
C2       0.56061    0.41475    0.41642   1.00
C5       0.68621    0.43097    0.50961   1.00
H2       0.71662    0.42641    0.52021   1.00
H2       0.67234    0.40179    0.50559   1.00
C5       0.66378    0.45357    0.54047   1.00
H2       0.63371    0.45909    0.52941   1.00
H2       0.67809    0.48250    0.54450   1.00
C5       0.66246    0.43104    0.57912   1.00
H2       0.69240    0.42519    0.59019   1.00
H2       0.64697    0.40274    0.57542   1.00
H2       0.64670    0.44839    0.60155   1.00
C5       0.65395    0.32541    0.43163   1.00
C5       0.55430    0.50494    0.39427   1.00
H2       0.67412    0.33496    0.40807   1.00
H2       0.62788    0.31143    0.41803   1.00
H2       0.58200    0.51872    0.40442   1.00
H2       0.53605    0.49901    0.42069   1.00
H2       0.47445    0.54468    0.39126   1.00
H2       0.72250    0.27852    0.41724   1.00
H2       0.67734    0.25155    0.41037   1.00
C2       0.76895    0.41457    0.41753   1.00
C3       0.74903    0.39699    0.38605   1.00
O2       0.76826    0.37160    0.36142   1.00
C3       0.74674    0.43362    0.44667   1.00
H1       0.76115    0.44822    0.47061   1.00
C3a      0.70787    0.39792    0.38488   1.00
H1       0.69298    0.38243    0.36177   1.00
C3b      0.70578    0.43341    0.44608   1.00
C4       0.68600    0.41541    0.41508   1.00
O_3      0.64333    0.35694    0.45588   1.00
C5       0.77780    0.39049    0.32611   1.00
H2       0.75109    0.40134    0.31091   1.00
C5       0.79834    0.36038    0.30030   1.00
H2       0.79774    0.41565    0.33137   1.00
H2       0.77577    0.34137    0.28670   1.00
H2       0.81601    0.34128    0.31979   1.00
C5       0.82431    0.37914    0.26870   1.00
H2       0.80689    0.40041    0.25150   1.00
H2       0.83609    0.35655    0.24854   1.00
H2       0.85006    0.39425    0.28187   1.00
C5       0.67480    0.29547    0.45698   1.00
H2       0.65282    0.28108    0.47611   1.00
H2       0.69545    0.31127    0.47650   1.00
C5       0.69697    0.26510    0.43239   1.00
H2       0.70834    0.24154    0.45155   1.00
C5       1.29727    0.53230    0.46370   1.00
H2       1.31255    0.51291    0.48469   1.00
H2       1.27599    0.54934    0.48125   1.00
C5       1.32719    0.55989    0.44413   1.00
H2       1.33390    0.58517    0.46339   1.00
H2       1.31540    0.57089    0.41593   1.00
O_3      1.14500    0.45290    0.35525   1.00
C4       1.18600    0.41466    0.41529   1.00
C3c      1.20743    0.44381    0.43453   1.00
H1       1.19225    0.46682    0.44986   1.00
C3d      1.20635    0.38462    0.39596   1.00
C3       1.24854    0.44411    0.43389   1.00
O2       1.26748    0.47072    0.45726   1.00
C3       1.24727    0.38526    0.39464   1.00
H1       1.26157    0.36239    0.37829   1.00
C2       1.26939    0.41475    0.41358   1.00
C5       1.14379    0.43097    0.32039   1.00
H2       1.11338    0.42641    0.30979   1.00
H2       1.15766    0.40179    0.32441   1.00
C5       1.16622    0.45357    0.28953   1.00
H2       1.19629    0.45909    0.30059   1.00
H2       1.15191    0.48250    0.28550   1.00
C5       1.16754    0.43104    0.25088   1.00
H2       1.13760    0.42519    0.23981   1.00
H2       1.18303    0.40274    0.25458   1.00
H2       1.18330    0.44839    0.22845   1.00
C5       1.17605    0.32541    0.39837   1.00
C5       1.27570    0.50494    0.43573   1.00
H2       1.15588    0.33496    0.42193   1.00
H2       1.20212    0.31143    0.41197   1.00
H2       1.24800    0.51872    0.42558   1.00
H2       1.29395    0.49901    0.40931   1.00
H2       1.35555    0.54468    0.43874   1.00
H2       1.10750    0.27852    0.41276   1.00
H2       1.15266    0.25155    0.41963   1.00
C2       1.06105    0.41457    0.41247   1.00
C3       1.08097    0.39699    0.44395   1.00
O2       1.06174    0.37160    0.46858   1.00
C3       1.08326    0.43362    0.38333   1.00
H1       1.06885    0.44822    0.35939   1.00
C3a      1.12213    0.39792    0.44512   1.00
H1       1.13702    0.38243    0.46823   1.00
C3b      1.12422    0.43341    0.38392   1.00
C4       1.14400    0.41541    0.41492   1.00
O_3      1.18667    0.35694    0.37412   1.00
C5       1.05220    0.39049    0.50389   1.00
H2       1.07891    0.40134    0.51909   1.00
C5       1.03166    0.36038    0.52970   1.00
H2       1.03226    0.41565    0.49863   1.00
H2       1.05423    0.34137    0.54330   1.00
H2       1.01399    0.34128    0.51021   1.00
C5       1.00569    0.37914    0.56130   1.00
H2       1.02311    0.40041    0.57850   1.00
H2       0.99391    0.35655    0.58146   1.00
H2       0.97994    0.39425    0.54813   1.00
C5       1.15520    0.29547    0.37302   1.00
H2       1.17718    0.28108    0.35389   1.00
H2       1.13455    0.31127    0.35350   1.00
C5       1.13303    0.26510    0.39761   1.00
H2       1.12166    0.24154    0.37845   1.00
C5       0.86630    0.03273    0.53230   1.00
H2       0.84531    0.01745    0.51291   1.00
H2       0.84875    0.05401    0.54934   1.00
C5       0.88587    0.00281    0.55989   1.00
H2       0.86661    -0.00390   0.58517   1.00
H2       0.91407    0.01460    0.57089   1.00
O_3      0.97475    0.18500    0.45290   1.00
C4       0.91471    0.14400    0.41466   1.00
C3c      0.89547    0.12257    0.44381   1.00
H1       0.88014    0.13775    0.46682   1.00
C3d      0.93404    0.12365    0.38462   1.00
C3       0.89611    0.08146    0.44411   1.00
O2       0.87274    0.06252    0.47072   1.00
C3       0.93536    0.08273    0.38526   1.00
H1       0.95171    0.06843    0.36239   1.00
C2       0.91642    0.06061    0.41475   1.00
C5       1.00961    0.18621    0.43097   1.00
H2       1.02021    0.21662    0.42641   1.00
H2       1.00559    0.17234    0.40179   1.00
C5       1.04047    0.16378    0.45357   1.00
H2       1.02941    0.13371    0.45909   1.00
H2       1.04450    0.17809    0.48250   1.00
C5       1.07912    0.16246    0.43104   1.00
H2       1.09019    0.19240    0.42519   1.00
H2       1.07542    0.14697    0.40274   1.00
H2       1.10155    0.14670    0.44839   1.00
C5       0.93163    0.15395    0.32541   1.00
C5       0.89427    0.05430    0.50494   1.00
H2       0.90807    0.17412    0.33496   1.00
H2       0.91803    0.12788    0.31143   1.00
H2       0.90442    0.08200    0.51872   1.00
H2       0.92069    0.03605    0.49901   1.00
H2       0.89126    -0.02555   0.54468   1.00
H2       0.91724    0.22250    0.27852   1.00
H2       0.91037    0.17734    0.25155   1.00
C2       0.91753    0.26895    0.41457   1.00
C3       0.88605    0.24903    0.39699   1.00
O2       0.86142    0.26826    0.37160   1.00
C3       0.94667    0.24674    0.43362   1.00
H1       0.97061    0.26115    0.44822   1.00
C3a      0.88488    0.20787    0.39792   1.00
H1       0.86177    0.19298    0.38243   1.00
C3b      0.94608    0.20578    0.43341   1.00
C4       0.91508    0.18600    0.41541   1.00
O_3      0.95588    0.14333    0.35694   1.00
C5       0.82611    0.27780    0.39049   1.00
H2       0.81091    0.25109    0.40134   1.00
C5       0.80030    0.29834    0.36038   1.00
H2       0.83137    0.29774    0.41565   1.00
H2       0.78670    0.27577    0.34137   1.00
H2       0.81979    0.31601    0.34128   1.00
C5       0.76870    0.32431    0.37914   1.00
H2       0.75150    0.30689    0.40041   1.00
H2       0.74854    0.33609    0.35655   1.00
H2       0.78187    0.35006    0.39425   1.00
C5       0.95698    0.17480    0.29547   1.00
H2       0.97611    0.15282    0.28108   1.00
H2       0.97650    0.19545    0.31127   1.00
C5       0.93239    0.19697    0.26510   1.00
H2       0.95155    0.20834    0.24154   1.00
C5       1.03230    0.36630    0.03273   1.00
H2       1.01291    0.34531    0.01745   1.00
H2       1.04934    0.34875    0.05401   1.00
C5       1.05989    0.38587    0.00281   1.00
H2       1.08517    0.36661    -0.00390   1.00
H2       1.07089    0.41407    0.01460   1.00
O_3      0.95290    0.47475    0.18500   1.00
C4       0.91466    0.41471    0.14400   1.00
C3c      0.94381    0.39547    0.12257   1.00
H1       0.96682    0.38014    0.13775   1.00
C3d      0.88462    0.43404    0.12365   1.00
C3       0.94411    0.39611    0.08146   1.00
O2       0.97072    0.37274    0.06252   1.00
C3       0.88526    0.43536    0.08273   1.00
H1       0.86239    0.45171    0.06843   1.00
C2       0.91475    0.41642    0.06061   1.00
C5       0.93097    0.50961    0.18621   1.00
H2       0.92641    0.52021    0.21662   1.00
H2       0.90179    0.50559    0.17234   1.00
C5       0.95357    0.54047    0.16378   1.00
H2       0.95909    0.52941    0.13371   1.00
H2       0.98250    0.54450    0.17809   1.00
C5       0.93104    0.57912    0.16246   1.00
H2       0.92519    0.59019    0.19240   1.00
H2       0.90274    0.57542    0.14697   1.00
H2       0.94839    0.60155    0.14670   1.00
C5       0.82541    0.43163    0.15395   1.00
C5       1.00494    0.39427    0.05430   1.00
H2       0.83496    0.40807    0.17412   1.00
H2       0.81143    0.41803    0.12788   1.00
H2       1.01872    0.40442    0.08200   1.00
H2       0.99901    0.42069    0.03605   1.00
H2       1.04468    0.39126    -0.02555   1.00
H2       0.77852    0.41724    0.22250   1.00
H2       0.75155    0.41037    0.17734   1.00
C2       0.91457    0.41753    0.26895   1.00
C3       0.89699    0.38605    0.24903   1.00
O2       0.87160    0.36142    0.26826   1.00
C3       0.93362    0.44667    0.24674   1.00
H1       0.94822    0.47061    0.26115   1.00
C3a      0.89792    0.38488    0.20787   1.00
H1       0.88243    0.36177    0.19298   1.00
C3b      0.93341    0.44608    0.20578   1.00
C4       0.91541    0.41508    0.18600   1.00
O_3      0.85694    0.45588    0.14333   1.00
C5       0.89049    0.32611    0.27780   1.00
H2       0.90134    0.31091    0.25109   1.00
C5       0.86038    0.30030    0.29834   1.00
H2       0.91565    0.33137    0.29774   1.00
H2       0.84137    0.28670    0.27577   1.00
H2       0.84128    0.31979    0.31601   1.00
C5       0.87914    0.26870    0.32431   1.00
H2       0.90041    0.25150    0.30689   1.00
H2       0.85655    0.24854    0.33609   1.00
H2       0.89425    0.28187    0.35006   1.00
C5       0.79547    0.45698    0.17480   1.00
H2       0.78108    0.47611    0.15282   1.00
H2       0.81127    0.47650    0.19545   1.00
C5       0.76510    0.43239    0.19697   1.00
H2       0.74154    0.45155    0.20834   1.00
