data_IRMOF10_SG202_interpen_Ligand12cp_label_w.

_audit_creation_method             'generated by an auxiliary program of Tobunporous'

_symmetry_space_group_name_H-M     'P 1'
_symmetry_Int_Tables_number        1
_symmetry_cell_setting             triclinic

_cell_length_a                    34.2800
_cell_length_b                    34.2800
_cell_length_c                    34.2800
_cell_angle_alpha                 90.0000
_cell_angle_beta                  90.0000
_cell_angle_gamma                 90.0000

loop_
_atom_site_label
_atom_site_fract_x
_atom_site_fract_y
_atom_site_fract_z
_atom_site_occupancy
O1       0.75000    0.75000    0.75000   1.00
Zn1      0.71720    0.78280    0.78280   1.00
Zn1      0.78280    0.71720    0.78280   1.00
Zn1      0.78280    0.78280    0.71720   1.00
Zn1      0.71720    0.71720    0.71720   1.00
O2       0.72650    0.77350    0.83820   1.00
O2       0.72650    0.83820    0.77350   1.00
O2       0.66180    0.77350    0.77350   1.00
O2       0.77350    0.72650    0.83820   1.00
O2       0.83820    0.72650    0.77350   1.00
O2       0.77350    0.66180    0.77350   1.00
O2       0.77350    0.83820    0.72650   1.00
O2       0.83820    0.77350    0.72650   1.00
O2       0.77350    0.77350    0.66180   1.00
O2       0.66180    0.72650    0.72650   1.00
O2       0.72650    0.66180    0.72650   1.00
O2       0.72650    0.72650    0.66180   1.00
C1       0.75000    0.75000    0.85520   1.00
C1       0.75000    0.85520    0.75000   1.00
C1       0.64480    0.75000    0.75000   1.00
C1       0.85520    0.75000    0.75000   1.00
C1       0.75000    0.64480    0.75000   1.00
C1       0.75000    0.75000    0.64480   1.00
O1       0.25000    0.25000    0.75000   1.00
Zn1      0.21720    0.28280    0.78280   1.00
Zn1      0.28280    0.21720    0.78280   1.00
Zn1      0.28280    0.28280    0.71720   1.00
Zn1      0.21720    0.21720    0.71720   1.00
O2       0.22650    0.27350    0.83820   1.00
O2       0.22650    0.33820    0.77350   1.00
O2       0.16180    0.27350    0.77350   1.00
O2       0.27350    0.22650    0.83820   1.00
O2       0.33820    0.22650    0.77350   1.00
O2       0.27350    0.16180    0.77350   1.00
O2       0.27350    0.33820    0.72650   1.00
O2       0.33820    0.27350    0.72650   1.00
O2       0.27350    0.27350    0.66180   1.00
O2       0.16180    0.22650    0.72650   1.00
O2       0.22650    0.16180    0.72650   1.00
O2       0.22650    0.22650    0.66180   1.00
C1       0.25000    0.25000    0.85520   1.00
C1       0.25000    0.35520    0.75000   1.00
C1       0.14480    0.25000    0.75000   1.00
C1       0.35520    0.25000    0.75000   1.00
C1       0.25000    0.14480    0.75000   1.00
C1       0.25000    0.25000    0.64480   1.00
O1       0.25000    0.75000    0.25000   1.00
Zn1      0.21720    0.78280    0.28280   1.00
Zn1      0.28280    0.71720    0.28280   1.00
Zn1      0.28280    0.78280    0.21720   1.00
Zn1      0.21720    0.71720    0.21720   1.00
O2       0.22650    0.77350    0.33820   1.00
O2       0.22650    0.83820    0.27350   1.00
O2       0.16180    0.77350    0.27350   1.00
O2       0.27350    0.72650    0.33820   1.00
O2       0.33820    0.72650    0.27350   1.00
O2       0.27350    0.66180    0.27350   1.00
O2       0.27350    0.83820    0.22650   1.00
O2       0.33820    0.77350    0.22650   1.00
O2       0.27350    0.77350    0.16180   1.00
O2       0.16180    0.72650    0.22650   1.00
O2       0.22650    0.66180    0.22650   1.00
O2       0.22650    0.72650    0.16180   1.00
C1       0.25000    0.75000    0.35520   1.00
C1       0.25000    0.85520    0.25000   1.00
C1       0.14480    0.75000    0.25000   1.00
C1       0.35520    0.75000    0.25000   1.00
C1       0.25000    0.64480    0.25000   1.00
C1       0.25000    0.75000    0.14480   1.00
O1       0.75000    0.25000    0.25000   1.00
Zn1      0.71720    0.28280    0.28280   1.00
Zn1      0.78280    0.21720    0.28280   1.00
Zn1      0.78280    0.28280    0.21720   1.00
Zn1      0.71720    0.21720    0.21720   1.00
O2       0.72650    0.27350    0.33820   1.00
O2       0.72650    0.33820    0.27350   1.00
O2       0.66180    0.27350    0.27350   1.00
O2       0.77350    0.22650    0.33820   1.00
O2       0.83820    0.22650    0.27350   1.00
O2       0.77350    0.16180    0.27350   1.00
O2       0.77350    0.33820    0.22650   1.00
O2       0.83820    0.27350    0.22650   1.00
O2       0.77350    0.27350    0.16180   1.00
O2       0.66180    0.22650    0.22650   1.00
O2       0.72650    0.16180    0.22650   1.00
O2       0.72650    0.22650    0.16180   1.00
C1       0.75000    0.25000    0.35520   1.00
C1       0.75000    0.35520    0.25000   1.00
C1       0.64480    0.25000    0.25000   1.00
C1       0.85520    0.25000    0.25000   1.00
C1       0.75000    0.14480    0.25000   1.00
C1       0.75000    0.25000    0.14480   1.00
O1       0.25000    0.25000    0.25000   1.00
Zn1      0.28280    0.21720    0.21720   1.00
Zn1      0.21720    0.28280    0.21720   1.00
Zn1      0.21720    0.21720    0.28280   1.00
Zn1      0.28280    0.28280    0.28280   1.00
O2       0.27350    0.22650    0.16180   1.00
O2       0.27350    0.16180    0.22650   1.00
O2       0.33820    0.22650    0.22650   1.00
O2       0.22650    0.27350    0.16180   1.00
O2       0.16180    0.27350    0.22650   1.00
O2       0.22650    0.33820    0.22650   1.00
O2       0.22650    0.16180    0.27350   1.00
O2       0.16180    0.22650    0.27350   1.00
O2       0.22650    0.22650    0.33820   1.00
O2       0.33820    0.27350    0.27350   1.00
O2       0.27350    0.33820    0.27350   1.00
O2       0.27350    0.27350    0.33820   1.00
C1       0.25000    0.25000    0.14480   1.00
C1       0.25000    0.14480    0.25000   1.00
C1       0.35520    0.25000    0.25000   1.00
C1       0.14480    0.25000    0.25000   1.00
C1       0.25000    0.35520    0.25000   1.00
C1       0.25000    0.25000    0.35520   1.00
O1       0.75000    0.75000    0.25000   1.00
Zn1      0.78280    0.71720    0.21720   1.00
Zn1      0.71720    0.78280    0.21720   1.00
Zn1      0.71720    0.71720    0.28280   1.00
Zn1      0.78280    0.78280    0.28280   1.00
O2       0.77350    0.72650    0.16180   1.00
O2       0.77350    0.66180    0.22650   1.00
O2       0.83820    0.72650    0.22650   1.00
O2       0.72650    0.77350    0.16180   1.00
O2       0.66180    0.77350    0.22650   1.00
O2       0.72650    0.83820    0.22650   1.00
O2       0.72650    0.66180    0.27350   1.00
O2       0.66180    0.72650    0.27350   1.00
O2       0.72650    0.72650    0.33820   1.00
O2       0.83820    0.77350    0.27350   1.00
O2       0.77350    0.83820    0.27350   1.00
O2       0.77350    0.77350    0.33820   1.00
C1       0.75000    0.75000    0.14480   1.00
C1       0.75000    0.64480    0.25000   1.00
C1       0.85520    0.75000    0.25000   1.00
C1       0.64480    0.75000    0.25000   1.00
C1       0.75000    0.85520    0.25000   1.00
C1       0.75000    0.75000    0.35520   1.00
O1       0.75000    0.25000    0.75000   1.00
Zn1      0.78280    0.21720    0.71720   1.00
Zn1      0.71720    0.28280    0.71720   1.00
Zn1      0.71720    0.21720    0.78280   1.00
Zn1      0.78280    0.28280    0.78280   1.00
O2       0.77350    0.22650    0.66180   1.00
O2       0.77350    0.16180    0.72650   1.00
O2       0.83820    0.22650    0.72650   1.00
O2       0.72650    0.27350    0.66180   1.00
O2       0.66180    0.27350    0.72650   1.00
O2       0.72650    0.33820    0.72650   1.00
O2       0.72650    0.16180    0.77350   1.00
O2       0.66180    0.22650    0.77350   1.00
O2       0.72650    0.22650    0.83820   1.00
O2       0.83820    0.27350    0.77350   1.00
O2       0.77350    0.33820    0.77350   1.00
O2       0.77350    0.27350    0.83820   1.00
C1       0.75000    0.25000    0.64480   1.00
C1       0.75000    0.14480    0.75000   1.00
C1       0.85520    0.25000    0.75000   1.00
C1       0.64480    0.25000    0.75000   1.00
C1       0.75000    0.35520    0.75000   1.00
C1       0.75000    0.25000    0.85520   1.00
O1       0.25000    0.75000    0.75000   1.00
Zn1      0.28280    0.71720    0.71720   1.00
Zn1      0.21720    0.78280    0.71720   1.00
Zn1      0.21720    0.71720    0.78280   1.00
Zn1      0.28280    0.78280    0.78280   1.00
O2       0.27350    0.72650    0.66180   1.00
O2       0.27350    0.66180    0.72650   1.00
O2       0.33820    0.72650    0.72650   1.00
O2       0.22650    0.77350    0.66180   1.00
O2       0.16180    0.77350    0.72650   1.00
O2       0.22650    0.83820    0.72650   1.00
O2       0.22650    0.66180    0.77350   1.00
O2       0.16180    0.72650    0.77350   1.00
O2       0.22650    0.72650    0.83820   1.00
O2       0.33820    0.77350    0.77350   1.00
O2       0.27350    0.83820    0.77350   1.00
O2       0.27350    0.77350    0.83820   1.00
C1       0.25000    0.75000    0.64480   1.00
C1       0.25000    0.64480    0.75000   1.00
C1       0.35520    0.75000    0.75000   1.00
C1       0.14480    0.75000    0.75000   1.00
C1       0.25000    0.85520    0.75000   1.00
C1       0.25000    0.75000    0.85520   1.00
O1       0.91500    0.91500    0.91500   1.00
Zn1      0.88220    0.94780    0.94780   1.00
Zn1      0.94780    0.88220    0.94780   1.00
Zn1      0.94780    0.94780    0.88220   1.00
Zn1      0.88220    0.88220    0.88220   1.00
O2       0.89150    0.93850    1.00320   1.00
O2       0.89150    1.00320    0.93850   1.00
O2       0.82680    0.93850    0.93850   1.00
O2       0.93850    0.89150    1.00320   1.00
O2       1.00320    0.89150    0.93850   1.00
O2       0.93850    0.82680    0.93850   1.00
O2       0.93850    1.00320    0.89150   1.00
O2       1.00320    0.93850    0.89150   1.00
O2       0.93850    0.93850    0.82680   1.00
O2       0.82680    0.89150    0.89150   1.00
O2       0.89150    0.82680    0.89150   1.00
O2       0.89150    0.89150    0.82680   1.00
C1       0.91500    0.91500    1.02020   1.00
C1       0.91500    1.02020    0.91500   1.00
C1       0.80980    0.91500    0.91500   1.00
C1       1.02020    0.91500    0.91500   1.00
C1       0.91500    0.80980    0.91500   1.00
C1       0.91500    0.91500    0.80980   1.00
O1       0.41500    0.41500    0.91500   1.00
Zn1      0.38220    0.44780    0.94780   1.00
Zn1      0.44780    0.38220    0.94780   1.00
Zn1      0.44780    0.44780    0.88220   1.00
Zn1      0.38220    0.38220    0.88220   1.00
O2       0.39150    0.43850    1.00320   1.00
O2       0.39150    0.50320    0.93850   1.00
O2       0.32680    0.43850    0.93850   1.00
O2       0.43850    0.39150    1.00320   1.00
O2       0.50320    0.39150    0.93850   1.00
O2       0.43850    0.32680    0.93850   1.00
O2       0.43850    0.50320    0.89150   1.00
O2       0.50320    0.43850    0.89150   1.00
O2       0.43850    0.43850    0.82680   1.00
O2       0.32680    0.39150    0.89150   1.00
O2       0.39150    0.32680    0.89150   1.00
O2       0.39150    0.39150    0.82680   1.00
C1       0.41500    0.41500    1.02020   1.00
C1       0.41500    0.52020    0.91500   1.00
C1       0.30980    0.41500    0.91500   1.00
C1       0.52020    0.41500    0.91500   1.00
C1       0.41500    0.30980    0.91500   1.00
C1       0.41500    0.41500    0.80980   1.00
O1       0.41500    0.91500    0.41500   1.00
Zn1      0.38220    0.94780    0.44780   1.00
Zn1      0.44780    0.88220    0.44780   1.00
Zn1      0.44780    0.94780    0.38220   1.00
Zn1      0.38220    0.88220    0.38220   1.00
O2       0.39150    0.93850    0.50320   1.00
O2       0.39150    1.00320    0.43850   1.00
O2       0.32680    0.93850    0.43850   1.00
O2       0.43850    0.89150    0.50320   1.00
O2       0.50320    0.89150    0.43850   1.00
O2       0.43850    0.82680    0.43850   1.00
O2       0.43850    1.00320    0.39150   1.00
O2       0.50320    0.93850    0.39150   1.00
O2       0.43850    0.93850    0.32680   1.00
O2       0.32680    0.89150    0.39150   1.00
O2       0.39150    0.82680    0.39150   1.00
O2       0.39150    0.89150    0.32680   1.00
C1       0.41500    0.91500    0.52020   1.00
C1       0.41500    1.02020    0.41500   1.00
C1       0.30980    0.91500    0.41500   1.00
C1       0.52020    0.91500    0.41500   1.00
C1       0.41500    0.80980    0.41500   1.00
C1       0.41500    0.91500    0.30980   1.00
O1       0.91500    0.41500    0.41500   1.00
Zn1      0.88220    0.44780    0.44780   1.00
Zn1      0.94780    0.38220    0.44780   1.00
Zn1      0.94780    0.44780    0.38220   1.00
Zn1      0.88220    0.38220    0.38220   1.00
O2       0.89150    0.43850    0.50320   1.00
O2       0.89150    0.50320    0.43850   1.00
O2       0.82680    0.43850    0.43850   1.00
O2       0.93850    0.39150    0.50320   1.00
O2       1.00320    0.39150    0.43850   1.00
O2       0.93850    0.32680    0.43850   1.00
O2       0.93850    0.50320    0.39150   1.00
O2       1.00320    0.43850    0.39150   1.00
O2       0.93850    0.43850    0.32680   1.00
O2       0.82680    0.39150    0.39150   1.00
O2       0.89150    0.32680    0.39150   1.00
O2       0.89150    0.39150    0.32680   1.00
C1       0.91500    0.41500    0.52020   1.00
C1       0.91500    0.52020    0.41500   1.00
C1       0.80980    0.41500    0.41500   1.00
C1       1.02020    0.41500    0.41500   1.00
C1       0.91500    0.30980    0.41500   1.00
C1       0.91500    0.41500    0.30980   1.00
O1       0.41500    0.41500    0.41500   1.00
Zn1      0.44780    0.38220    0.38220   1.00
Zn1      0.38220    0.44780    0.38220   1.00
Zn1      0.38220    0.38220    0.44780   1.00
Zn1      0.44780    0.44780    0.44780   1.00
O2       0.43850    0.39150    0.32680   1.00
O2       0.43850    0.32680    0.39150   1.00
O2       0.50320    0.39150    0.39150   1.00
O2       0.39150    0.43850    0.32680   1.00
O2       0.32680    0.43850    0.39150   1.00
O2       0.39150    0.50320    0.39150   1.00
O2       0.39150    0.32680    0.43850   1.00
O2       0.32680    0.39150    0.43850   1.00
O2       0.39150    0.39150    0.50320   1.00
O2       0.50320    0.43850    0.43850   1.00
O2       0.43850    0.50320    0.43850   1.00
O2       0.43850    0.43850    0.50320   1.00
C1       0.41500    0.41500    0.30980   1.00
C1       0.41500    0.30980    0.41500   1.00
C1       0.52020    0.41500    0.41500   1.00
C1       0.30980    0.41500    0.41500   1.00
C1       0.41500    0.52020    0.41500   1.00
C1       0.41500    0.41500    0.52020   1.00
O1       0.91500    0.91500    0.41500   1.00
Zn1      0.94780    0.88220    0.38220   1.00
Zn1      0.88220    0.94780    0.38220   1.00
Zn1      0.88220    0.88220    0.44780   1.00
Zn1      0.94780    0.94780    0.44780   1.00
O2       0.93850    0.89150    0.32680   1.00
O2       0.93850    0.82680    0.39150   1.00
O2       1.00320    0.89150    0.39150   1.00
O2       0.89150    0.93850    0.32680   1.00
O2       0.82680    0.93850    0.39150   1.00
O2       0.89150    1.00320    0.39150   1.00
O2       0.89150    0.82680    0.43850   1.00
O2       0.82680    0.89150    0.43850   1.00
O2       0.89150    0.89150    0.50320   1.00
O2       1.00320    0.93850    0.43850   1.00
O2       0.93850    1.00320    0.43850   1.00
O2       0.93850    0.93850    0.50320   1.00
C1       0.91500    0.91500    0.30980   1.00
C1       0.91500    0.80980    0.41500   1.00
C1       1.02020    0.91500    0.41500   1.00
C1       0.80980    0.91500    0.41500   1.00
C1       0.91500    1.02020    0.41500   1.00
C1       0.91500    0.91500    0.52020   1.00
O1       0.91500    0.41500    0.91500   1.00
Zn1      0.94780    0.38220    0.88220   1.00
Zn1      0.88220    0.44780    0.88220   1.00
Zn1      0.88220    0.38220    0.94780   1.00
Zn1      0.94780    0.44780    0.94780   1.00
O2       0.93850    0.39150    0.82680   1.00
O2       0.93850    0.32680    0.89150   1.00
O2       1.00320    0.39150    0.89150   1.00
O2       0.89150    0.43850    0.82680   1.00
O2       0.82680    0.43850    0.89150   1.00
O2       0.89150    0.50320    0.89150   1.00
O2       0.89150    0.32680    0.93850   1.00
O2       0.82680    0.39150    0.93850   1.00
O2       0.89150    0.39150    1.00320   1.00
O2       1.00320    0.43850    0.93850   1.00
O2       0.93850    0.50320    0.93850   1.00
O2       0.93850    0.43850    1.00320   1.00
C1       0.91500    0.41500    0.80980   1.00
C1       0.91500    0.30980    0.91500   1.00
C1       1.02020    0.41500    0.91500   1.00
C1       0.80980    0.41500    0.91500   1.00
C1       0.91500    0.52020    0.91500   1.00
C1       0.91500    0.41500    1.02020   1.00
O1       0.41500    0.91500    0.91500   1.00
Zn1      0.44780    0.88220    0.88220   1.00
Zn1      0.38220    0.94780    0.88220   1.00
Zn1      0.38220    0.88220    0.94780   1.00
Zn1      0.44780    0.94780    0.94780   1.00
O2       0.43850    0.89150    0.82680   1.00
O2       0.43850    0.82680    0.89150   1.00
O2       0.50320    0.89150    0.89150   1.00
O2       0.39150    0.93850    0.82680   1.00
O2       0.32680    0.93850    0.89150   1.00
O2       0.39150    1.00320    0.89150   1.00
O2       0.39150    0.82680    0.93850   1.00
O2       0.32680    0.89150    0.93850   1.00
O2       0.39150    0.89150    1.00320   1.00
O2       0.50320    0.93850    0.93850   1.00
O2       0.43850    1.00320    0.93850   1.00
O2       0.43850    0.93850    1.00320   1.00
C1       0.41500    0.91500    0.80980   1.00
C1       0.41500    0.80980    0.91500   1.00
C1       0.52020    0.91500    0.91500   1.00
C1       0.30980    0.91500    0.91500   1.00
C1       0.41500    1.02020    0.91500   1.00
C1       0.41500    0.91500    1.02020   1.00
C4       0.74925    0.74980    1.02067   1.00
C4       0.75075    0.75020    0.97933   1.00
C3       0.73660    0.78281    1.04244   1.00
C3       0.74519    0.78511    0.95756   1.00
C4       0.76087    0.71586    1.04150   1.00
C4       0.75767    0.71500    0.95850   1.00
C2       0.74985    0.75061    1.10352   1.00
C2       0.74982    0.75060    0.89648   1.00
C3       0.73732    0.78314    1.08310   1.00
C3       0.74441    0.78504    0.91690   1.00
C3       0.76099    0.71713    1.08306   1.00
C3       0.75692    0.71604    0.91694   1.00
H1       0.72503    0.80867    1.02888   1.00
H1       0.74228    0.81329    0.97112   1.00
C5       0.77147    0.68143    1.02065   1.00
C5       0.76570    0.67989    0.97935   1.00
H1       0.72781    0.80883    1.09886   1.00
H1       0.73979    0.81204    0.90114   1.00
H1       0.76907    0.69226    1.10053   1.00
H1       0.76237    0.69046    0.89947   1.00
C6       0.79024    0.64724    1.04234   1.00
C6       0.76655    0.64089    0.95766   1.00
H2       0.81214    0.63251    1.02358   1.00
H2       0.80804    0.65709    1.06737   1.00
C6       0.75921    0.61850    1.05724   1.00
H2       0.75496    0.61718    0.97642   1.00
H2       0.74621    0.64052    0.93263   1.00
C6       0.80780    0.63152    0.94276   1.00
H2       0.74119    0.60716    1.03274   1.00
C6       0.77842    0.58429    1.07832   1.00
H2       0.73894    0.63369    1.07760   1.00
C6       0.80828    0.59230    0.92168   1.00
H2       0.81776    0.65482    0.92240   1.00
H2       0.82907    0.63072    0.96726   1.00
H2       0.79814    0.56822    1.05822   1.00
H2       0.79552    0.59477    1.10380   1.00
H2       0.75569    0.56378    1.08898   1.00
H2       0.79924    0.56851    0.94178   1.00
H2       0.78823    0.59282    0.89620   1.00
H2       0.83821    0.58590    0.91102   1.00
C4       0.74980    1.02067    0.74925   1.00
C4       0.75020    0.97933    0.75075   1.00
C3       0.78281    1.04244    0.73660   1.00
C3       0.78511    0.95756    0.74519   1.00
C4       0.71586    1.04150    0.76087   1.00
C4       0.71500    0.95850    0.75767   1.00
C2       0.75061    1.10352    0.74985   1.00
C2       0.75060    0.89648    0.74982   1.00
C3       0.78314    1.08310    0.73732   1.00
C3       0.78504    0.91690    0.74441   1.00
C3       0.71713    1.08306    0.76099   1.00
C3       0.71604    0.91694    0.75692   1.00
H1       0.80867    1.02888    0.72503   1.00
H1       0.81329    0.97112    0.74228   1.00
C5       0.68143    1.02065    0.77147   1.00
C5       0.67989    0.97935    0.76570   1.00
H1       0.80883    1.09886    0.72781   1.00
H1       0.81204    0.90114    0.73979   1.00
H1       0.69226    1.10053    0.76907   1.00
H1       0.69046    0.89947    0.76237   1.00
C6       0.64724    1.04234    0.79024   1.00
C6       0.64089    0.95766    0.76655   1.00
H2       0.63251    1.02358    0.81214   1.00
H2       0.65709    1.06737    0.80804   1.00
C6       0.61850    1.05724    0.75921   1.00
H2       0.61718    0.97642    0.75496   1.00
H2       0.64052    0.93263    0.74621   1.00
C6       0.63152    0.94276    0.80780   1.00
H2       0.60716    1.03274    0.74119   1.00
C6       0.58429    1.07832    0.77842   1.00
H2       0.63369    1.07760    0.73894   1.00
C6       0.59230    0.92168    0.80828   1.00
H2       0.65482    0.92240    0.81776   1.00
H2       0.63072    0.96726    0.82907   1.00
H2       0.56822    1.05822    0.79814   1.00
H2       0.59477    1.10380    0.79552   1.00
H2       0.56378    1.08898    0.75569   1.00
H2       0.56851    0.94178    0.79924   1.00
H2       0.59282    0.89620    0.78823   1.00
H2       0.58590    0.91102    0.83821   1.00
C4       0.47933    0.74925    0.75020   1.00
C4       0.52067    0.75075    0.74980   1.00
C3       0.45756    0.73660    0.71719   1.00
C3       0.54244    0.74519    0.71489   1.00
C4       0.45850    0.76087    0.78414   1.00
C4       0.54150    0.75767    0.78500   1.00
C2       0.39648    0.74985    0.74939   1.00
C2       0.60352    0.74982    0.74940   1.00
C3       0.41690    0.73732    0.71686   1.00
C3       0.58310    0.74441    0.71496   1.00
C3       0.41694    0.76099    0.78287   1.00
C3       0.58306    0.75692    0.78396   1.00
H1       0.47112    0.72503    0.69133   1.00
H1       0.52888    0.74228    0.68671   1.00
C5       0.47935    0.77147    0.81857   1.00
C5       0.52065    0.76570    0.82011   1.00
H1       0.40114    0.72781    0.69117   1.00
H1       0.59886    0.73979    0.68796   1.00
H1       0.39947    0.76907    0.80774   1.00
H1       0.60053    0.76237    0.80954   1.00
C6       0.45766    0.79024    0.85276   1.00
C6       0.54234    0.76655    0.85911   1.00
H2       0.47642    0.81214    0.86749   1.00
H2       0.43263    0.80804    0.84291   1.00
C6       0.44276    0.75921    0.88150   1.00
H2       0.52358    0.75496    0.88282   1.00
H2       0.56737    0.74621    0.85948   1.00
C6       0.55724    0.80780    0.86848   1.00
H2       0.46726    0.74119    0.89284   1.00
C6       0.42168    0.77842    0.91571   1.00
H2       0.42240    0.73894    0.86631   1.00
C6       0.57832    0.80828    0.90770   1.00
H2       0.57760    0.81776    0.84518   1.00
H2       0.53274    0.82907    0.86928   1.00
H2       0.44178    0.79814    0.93178   1.00
H2       0.39620    0.79552    0.90523   1.00
H2       0.41102    0.75569    0.93622   1.00
H2       0.55822    0.79924    0.93149   1.00
H2       0.60380    0.78823    0.90718   1.00
H2       0.58898    0.83821    0.91410   1.00
C4       1.02067    0.74925    0.74980   1.00
C4       0.97933    0.75075    0.75020   1.00
C3       1.04244    0.73660    0.78281   1.00
C3       0.95756    0.74519    0.78511   1.00
C4       1.04150    0.76087    0.71586   1.00
C4       0.95850    0.75767    0.71500   1.00
C2       1.10352    0.74985    0.75061   1.00
C2       0.89648    0.74982    0.75060   1.00
C3       1.08310    0.73732    0.78314   1.00
C3       0.91690    0.74441    0.78504   1.00
C3       1.08306    0.76099    0.71713   1.00
C3       0.91694    0.75692    0.71604   1.00
H1       1.02888    0.72503    0.80867   1.00
H1       0.97112    0.74228    0.81329   1.00
C5       1.02065    0.77147    0.68143   1.00
C5       0.97935    0.76570    0.67989   1.00
H1       1.09886    0.72781    0.80883   1.00
H1       0.90114    0.73979    0.81204   1.00
H1       1.10053    0.76907    0.69226   1.00
H1       0.89947    0.76237    0.69046   1.00
C6       1.04234    0.79024    0.64724   1.00
C6       0.95766    0.76655    0.64089   1.00
H2       1.02358    0.81214    0.63251   1.00
H2       1.06737    0.80804    0.65709   1.00
C6       1.05724    0.75921    0.61850   1.00
H2       0.97642    0.75496    0.61718   1.00
H2       0.93263    0.74621    0.64052   1.00
C6       0.94276    0.80780    0.63152   1.00
H2       1.03274    0.74119    0.60716   1.00
C6       1.07832    0.77842    0.58429   1.00
H2       1.07760    0.73894    0.63369   1.00
C6       0.92168    0.80828    0.59230   1.00
H2       0.92240    0.81776    0.65482   1.00
H2       0.96726    0.82907    0.63072   1.00
H2       1.05822    0.79814    0.56822   1.00
H2       1.10380    0.79552    0.59477   1.00
H2       1.08898    0.75569    0.56378   1.00
H2       0.94178    0.79924    0.56851   1.00
H2       0.89620    0.78823    0.59282   1.00
H2       0.91102    0.83821    0.58590   1.00
C4       0.75020    0.47933    0.74925   1.00
C4       0.74980    0.52067    0.75075   1.00
C3       0.71719    0.45756    0.73660   1.00
C3       0.71489    0.54244    0.74519   1.00
C4       0.78414    0.45850    0.76087   1.00
C4       0.78500    0.54150    0.75767   1.00
C2       0.74939    0.39648    0.74985   1.00
C2       0.74940    0.60352    0.74982   1.00
C3       0.71686    0.41690    0.73732   1.00
C3       0.71496    0.58310    0.74441   1.00
C3       0.78287    0.41694    0.76099   1.00
C3       0.78396    0.58306    0.75692   1.00
H1       0.69133    0.47112    0.72503   1.00
H1       0.68671    0.52888    0.74228   1.00
C5       0.81857    0.47935    0.77147   1.00
C5       0.82011    0.52065    0.76570   1.00
H1       0.69117    0.40114    0.72781   1.00
H1       0.68796    0.59886    0.73979   1.00
H1       0.80774    0.39947    0.76907   1.00
H1       0.80954    0.60053    0.76237   1.00
C6       0.85276    0.45766    0.79024   1.00
C6       0.85911    0.54234    0.76655   1.00
H2       0.86749    0.47642    0.81214   1.00
H2       0.84291    0.43263    0.80804   1.00
C6       0.88150    0.44276    0.75921   1.00
H2       0.88282    0.52358    0.75496   1.00
H2       0.85948    0.56737    0.74621   1.00
C6       0.86848    0.55724    0.80780   1.00
H2       0.89284    0.46726    0.74119   1.00
C6       0.91571    0.42168    0.77842   1.00
H2       0.86631    0.42240    0.73894   1.00
C6       0.90770    0.57832    0.80828   1.00
H2       0.84518    0.57760    0.81776   1.00
H2       0.86928    0.53274    0.82907   1.00
H2       0.93178    0.44178    0.79814   1.00
H2       0.90523    0.39620    0.79552   1.00
H2       0.93622    0.41102    0.75569   1.00
H2       0.93149    0.55822    0.79924   1.00
H2       0.90718    0.60380    0.78823   1.00
H2       0.91410    0.58898    0.83821   1.00
C4       0.74925    0.75020    0.47933   1.00
C4       0.75075    0.74980    0.52067   1.00
C3       0.73660    0.71719    0.45756   1.00
C3       0.74519    0.71489    0.54244   1.00
C4       0.76087    0.78414    0.45850   1.00
C4       0.75767    0.78500    0.54150   1.00
C2       0.74985    0.74939    0.39648   1.00
C2       0.74982    0.74940    0.60352   1.00
C3       0.73732    0.71686    0.41690   1.00
C3       0.74441    0.71496    0.58310   1.00
C3       0.76099    0.78287    0.41694   1.00
C3       0.75692    0.78396    0.58306   1.00
H1       0.72503    0.69133    0.47112   1.00
H1       0.74228    0.68671    0.52888   1.00
C5       0.77147    0.81857    0.47935   1.00
C5       0.76570    0.82011    0.52065   1.00
H1       0.72781    0.69117    0.40114   1.00
H1       0.73979    0.68796    0.59886   1.00
H1       0.76907    0.80774    0.39947   1.00
H1       0.76237    0.80954    0.60053   1.00
C6       0.79024    0.85276    0.45766   1.00
C6       0.76655    0.85911    0.54234   1.00
H2       0.81214    0.86749    0.47642   1.00
H2       0.80804    0.84291    0.43263   1.00
C6       0.75921    0.88150    0.44276   1.00
H2       0.75496    0.88282    0.52358   1.00
H2       0.74621    0.85948    0.56737   1.00
C6       0.80780    0.86848    0.55724   1.00
H2       0.74119    0.89284    0.46726   1.00
C6       0.77842    0.91571    0.42168   1.00
H2       0.73894    0.86631    0.42240   1.00
C6       0.80828    0.90770    0.57832   1.00
H2       0.81776    0.84518    0.57760   1.00
H2       0.82907    0.86928    0.53274   1.00
H2       0.79814    0.93178    0.44178   1.00
H2       0.79552    0.90523    0.39620   1.00
H2       0.75569    0.93622    0.41102   1.00
H2       0.79924    0.93149    0.55822   1.00
H2       0.78823    0.90718    0.60380   1.00
H2       0.83821    0.91410    0.58898   1.00
C4       0.24925    0.24980    1.02067   1.00
C4       0.25075    0.25020    0.97933   1.00
C3       0.23660    0.28281    1.04244   1.00
C3       0.24519    0.28511    0.95756   1.00
C4       0.26087    0.21586    1.04150   1.00
C4       0.25767    0.21500    0.95850   1.00
C2       0.24985    0.25061    1.10352   1.00
C2       0.24982    0.25060    0.89648   1.00
C3       0.23732    0.28314    1.08310   1.00
C3       0.24441    0.28504    0.91690   1.00
C3       0.26099    0.21713    1.08306   1.00
C3       0.25692    0.21604    0.91694   1.00
H1       0.22503    0.30867    1.02888   1.00
H1       0.24228    0.31329    0.97112   1.00
C5       0.27147    0.18143    1.02065   1.00
C5       0.26570    0.17989    0.97935   1.00
H1       0.22781    0.30883    1.09886   1.00
H1       0.23979    0.31204    0.90114   1.00
H1       0.26907    0.19226    1.10053   1.00
H1       0.26237    0.19046    0.89947   1.00
C6       0.29024    0.14724    1.04234   1.00
C6       0.26655    0.14089    0.95766   1.00
H2       0.31214    0.13251    1.02358   1.00
H2       0.30804    0.15709    1.06737   1.00
C6       0.25921    0.11850    1.05724   1.00
H2       0.25496    0.11718    0.97642   1.00
H2       0.24621    0.14052    0.93263   1.00
C6       0.30780    0.13152    0.94276   1.00
H2       0.24119    0.10716    1.03274   1.00
C6       0.27842    0.08429    1.07832   1.00
H2       0.23894    0.13369    1.07760   1.00
C6       0.30828    0.09230    0.92168   1.00
H2       0.31776    0.15482    0.92240   1.00
H2       0.32907    0.13072    0.96726   1.00
H2       0.29814    0.06822    1.05822   1.00
H2       0.29552    0.09477    1.10380   1.00
H2       0.25569    0.06378    1.08898   1.00
H2       0.29924    0.06851    0.94178   1.00
H2       0.28823    0.09282    0.89620   1.00
H2       0.33821    0.08590    0.91102   1.00
C4       0.24980    0.52067    0.74925   1.00
C4       0.25020    0.47933    0.75075   1.00
C3       0.28281    0.54244    0.73660   1.00
C3       0.28511    0.45756    0.74519   1.00
C4       0.21586    0.54150    0.76087   1.00
C4       0.21500    0.45850    0.75767   1.00
C2       0.25061    0.60352    0.74985   1.00
C2       0.25060    0.39648    0.74982   1.00
C3       0.28314    0.58310    0.73732   1.00
C3       0.28504    0.41690    0.74441   1.00
C3       0.21713    0.58306    0.76099   1.00
C3       0.21604    0.41694    0.75692   1.00
H1       0.30867    0.52888    0.72503   1.00
H1       0.31329    0.47112    0.74228   1.00
C5       0.18143    0.52065    0.77147   1.00
C5       0.17989    0.47935    0.76570   1.00
H1       0.30883    0.59886    0.72781   1.00
H1       0.31204    0.40114    0.73979   1.00
H1       0.19226    0.60053    0.76907   1.00
H1       0.19046    0.39947    0.76237   1.00
C6       0.14724    0.54234    0.79024   1.00
C6       0.14089    0.45766    0.76655   1.00
H2       0.13251    0.52358    0.81214   1.00
H2       0.15709    0.56737    0.80804   1.00
C6       0.11850    0.55724    0.75921   1.00
H2       0.11718    0.47642    0.75496   1.00
H2       0.14052    0.43263    0.74621   1.00
C6       0.13152    0.44276    0.80780   1.00
H2       0.10716    0.53274    0.74119   1.00
C6       0.08429    0.57832    0.77842   1.00
H2       0.13369    0.57760    0.73894   1.00
C6       0.09230    0.42168    0.80828   1.00
H2       0.15482    0.42240    0.81776   1.00
H2       0.13072    0.46726    0.82907   1.00
H2       0.06822    0.55822    0.79814   1.00
H2       0.09477    0.60380    0.79552   1.00
H2       0.06378    0.58898    0.75569   1.00
H2       0.06851    0.44178    0.79924   1.00
H2       0.09282    0.39620    0.78823   1.00
H2       0.08590    0.41102    0.83821   1.00
C4       -0.02067   0.24925    0.75020   1.00
C4       0.02067    0.25075    0.74980   1.00
C3       -0.04244   0.23660    0.71719   1.00
C3       0.04244    0.24519    0.71489   1.00
C4       -0.04150   0.26087    0.78414   1.00
C4       0.04150    0.25767    0.78500   1.00
C2       -0.10352   0.24985    0.74939   1.00
C2       0.10352    0.24982    0.74940   1.00
C3       -0.08310   0.23732    0.71686   1.00
C3       0.08310    0.24441    0.71496   1.00
C3       -0.08306   0.26099    0.78287   1.00
C3       0.08306    0.25692    0.78396   1.00
H1       -0.02888   0.22503    0.69133   1.00
H1       0.02888    0.24228    0.68671   1.00
C5       -0.02065   0.27147    0.81857   1.00
C5       0.02065    0.26570    0.82011   1.00
H1       -0.09886   0.22781    0.69117   1.00
H1       0.09886    0.23979    0.68796   1.00
H1       -0.10053   0.26907    0.80774   1.00
H1       0.10053    0.26237    0.80954   1.00
C6       -0.04234   0.29024    0.85276   1.00
C6       0.04234    0.26655    0.85911   1.00
H2       -0.02358   0.31214    0.86749   1.00
H2       -0.06737   0.30804    0.84291   1.00
C6       -0.05724   0.25921    0.88150   1.00
H2       0.02358    0.25496    0.88282   1.00
H2       0.06737    0.24621    0.85948   1.00
C6       0.05724    0.30780    0.86848   1.00
H2       -0.03274   0.24119    0.89284   1.00
C6       -0.07832   0.27842    0.91571   1.00
H2       -0.07760   0.23894    0.86631   1.00
C6       0.07832    0.30828    0.90770   1.00
H2       0.07760    0.31776    0.84518   1.00
H2       0.03274    0.32907    0.86928   1.00
H2       -0.05822   0.29814    0.93178   1.00
H2       -0.10380   0.29552    0.90523   1.00
H2       -0.08898   0.25569    0.93622   1.00
H2       0.05822    0.29924    0.93149   1.00
H2       0.10380    0.28823    0.90718   1.00
H2       0.08898    0.33821    0.91410   1.00
C4       0.52067    0.24925    0.74980   1.00
C4       0.47933    0.25075    0.75020   1.00
C3       0.54244    0.23660    0.78281   1.00
C3       0.45756    0.24519    0.78511   1.00
C4       0.54150    0.26087    0.71586   1.00
C4       0.45850    0.25767    0.71500   1.00
C2       0.60352    0.24985    0.75061   1.00
C2       0.39648    0.24982    0.75060   1.00
C3       0.58310    0.23732    0.78314   1.00
C3       0.41690    0.24441    0.78504   1.00
C3       0.58306    0.26099    0.71713   1.00
C3       0.41694    0.25692    0.71604   1.00
H1       0.52888    0.22503    0.80867   1.00
H1       0.47112    0.24228    0.81329   1.00
C5       0.52065    0.27147    0.68143   1.00
C5       0.47935    0.26570    0.67989   1.00
H1       0.59886    0.22781    0.80883   1.00
H1       0.40114    0.23979    0.81204   1.00
H1       0.60053    0.26907    0.69226   1.00
H1       0.39947    0.26237    0.69046   1.00
C6       0.54234    0.29024    0.64724   1.00
C6       0.45766    0.26655    0.64089   1.00
H2       0.52358    0.31214    0.63251   1.00
H2       0.56737    0.30804    0.65709   1.00
C6       0.55724    0.25921    0.61850   1.00
H2       0.47642    0.25496    0.61718   1.00
H2       0.43263    0.24621    0.64052   1.00
C6       0.44276    0.30780    0.63152   1.00
H2       0.53274    0.24119    0.60716   1.00
C6       0.57832    0.27842    0.58429   1.00
H2       0.57760    0.23894    0.63369   1.00
C6       0.42168    0.30828    0.59230   1.00
H2       0.42240    0.31776    0.65482   1.00
H2       0.46726    0.32907    0.63072   1.00
H2       0.55822    0.29814    0.56822   1.00
H2       0.60380    0.29552    0.59477   1.00
H2       0.58898    0.25569    0.56378   1.00
H2       0.44178    0.29924    0.56851   1.00
H2       0.39620    0.28823    0.59282   1.00
H2       0.41102    0.33821    0.58590   1.00
C4       0.25020    -0.02067   0.74925   1.00
C4       0.24980    0.02067    0.75075   1.00
C3       0.21719    -0.04244   0.73660   1.00
C3       0.21489    0.04244    0.74519   1.00
C4       0.28414    -0.04150   0.76087   1.00
C4       0.28500    0.04150    0.75767   1.00
C2       0.24939    -0.10352   0.74985   1.00
C2       0.24940    0.10352    0.74982   1.00
C3       0.21686    -0.08310   0.73732   1.00
C3       0.21496    0.08310    0.74441   1.00
C3       0.28287    -0.08306   0.76099   1.00
C3       0.28396    0.08306    0.75692   1.00
H1       0.19133    -0.02888   0.72503   1.00
H1       0.18671    0.02888    0.74228   1.00
C5       0.31857    -0.02065   0.77147   1.00
C5       0.32011    0.02065    0.76570   1.00
H1       0.19117    -0.09886   0.72781   1.00
H1       0.18796    0.09886    0.73979   1.00
H1       0.30774    -0.10053   0.76907   1.00
H1       0.30954    0.10053    0.76237   1.00
C6       0.35276    -0.04234   0.79024   1.00
C6       0.35911    0.04234    0.76655   1.00
H2       0.36749    -0.02358   0.81214   1.00
H2       0.34291    -0.06737   0.80804   1.00
C6       0.38150    -0.05724   0.75921   1.00
H2       0.38282    0.02358    0.75496   1.00
H2       0.35948    0.06737    0.74621   1.00
C6       0.36848    0.05724    0.80780   1.00
H2       0.39284    -0.03274   0.74119   1.00
C6       0.41571    -0.07832   0.77842   1.00
H2       0.36631    -0.07760   0.73894   1.00
C6       0.40770    0.07832    0.80828   1.00
H2       0.34518    0.07760    0.81776   1.00
H2       0.36928    0.03274    0.82907   1.00
H2       0.43178    -0.05822   0.79814   1.00
H2       0.40523    -0.10380   0.79552   1.00
H2       0.43622    -0.08898   0.75569   1.00
H2       0.43149    0.05822    0.79924   1.00
H2       0.40718    0.10380    0.78823   1.00
H2       0.41410    0.08898    0.83821   1.00
C4       0.24925    0.25020    0.47933   1.00
C4       0.25075    0.24980    0.52067   1.00
C3       0.23660    0.21719    0.45756   1.00
C3       0.24519    0.21489    0.54244   1.00
C4       0.26087    0.28414    0.45850   1.00
C4       0.25767    0.28500    0.54150   1.00
C2       0.24985    0.24939    0.39648   1.00
C2       0.24982    0.24940    0.60352   1.00
C3       0.23732    0.21686    0.41690   1.00
C3       0.24441    0.21496    0.58310   1.00
C3       0.26099    0.28287    0.41694   1.00
C3       0.25692    0.28396    0.58306   1.00
H1       0.22503    0.19133    0.47112   1.00
H1       0.24228    0.18671    0.52888   1.00
C5       0.27147    0.31857    0.47935   1.00
C5       0.26570    0.32011    0.52065   1.00
H1       0.22781    0.19117    0.40114   1.00
H1       0.23979    0.18796    0.59886   1.00
H1       0.26907    0.30774    0.39947   1.00
H1       0.26237    0.30954    0.60053   1.00
C6       0.29024    0.35276    0.45766   1.00
C6       0.26655    0.35911    0.54234   1.00
H2       0.31214    0.36749    0.47642   1.00
H2       0.30804    0.34291    0.43263   1.00
C6       0.25921    0.38150    0.44276   1.00
H2       0.25496    0.38282    0.52358   1.00
H2       0.24621    0.35948    0.56737   1.00
C6       0.30780    0.36848    0.55724   1.00
H2       0.24119    0.39284    0.46726   1.00
C6       0.27842    0.41571    0.42168   1.00
H2       0.23894    0.36631    0.42240   1.00
C6       0.30828    0.40770    0.57832   1.00
H2       0.31776    0.34518    0.57760   1.00
H2       0.32907    0.36928    0.53274   1.00
H2       0.29814    0.43178    0.44178   1.00
H2       0.29552    0.40523    0.39620   1.00
H2       0.25569    0.43622    0.41102   1.00
H2       0.29924    0.43149    0.55822   1.00
H2       0.28823    0.40718    0.60380   1.00
H2       0.33821    0.41410    0.58898   1.00
C4       0.24925    0.74980    0.52067   1.00
C4       0.25075    0.75020    0.47933   1.00
C3       0.23660    0.78281    0.54244   1.00
C3       0.24519    0.78511    0.45756   1.00
C4       0.26087    0.71586    0.54150   1.00
C4       0.25767    0.71500    0.45850   1.00
C2       0.24985    0.75061    0.60352   1.00
C2       0.24982    0.75060    0.39648   1.00
C3       0.23732    0.78314    0.58310   1.00
C3       0.24441    0.78504    0.41690   1.00
C3       0.26099    0.71713    0.58306   1.00
C3       0.25692    0.71604    0.41694   1.00
H1       0.22503    0.80867    0.52888   1.00
H1       0.24228    0.81329    0.47112   1.00
C5       0.27147    0.68143    0.52065   1.00
C5       0.26570    0.67989    0.47935   1.00
H1       0.22781    0.80883    0.59886   1.00
H1       0.23979    0.81204    0.40114   1.00
H1       0.26907    0.69226    0.60053   1.00
H1       0.26237    0.69046    0.39947   1.00
C6       0.29024    0.64724    0.54234   1.00
C6       0.26655    0.64089    0.45766   1.00
H2       0.31214    0.63251    0.52358   1.00
H2       0.30804    0.65709    0.56737   1.00
C6       0.25921    0.61850    0.55724   1.00
H2       0.25496    0.61718    0.47642   1.00
H2       0.24621    0.64052    0.43263   1.00
C6       0.30780    0.63152    0.44276   1.00
H2       0.24119    0.60716    0.53274   1.00
C6       0.27842    0.58429    0.57832   1.00
H2       0.23894    0.63369    0.57760   1.00
C6       0.30828    0.59230    0.42168   1.00
H2       0.31776    0.65482    0.42240   1.00
H2       0.32907    0.63072    0.46726   1.00
H2       0.29814    0.56822    0.55822   1.00
H2       0.29552    0.59477    0.60380   1.00
H2       0.25569    0.56378    0.58898   1.00
H2       0.29924    0.56851    0.44178   1.00
H2       0.28823    0.59282    0.39620   1.00
H2       0.33821    0.58590    0.41102   1.00
C4       0.24980    1.02067    0.24925   1.00
C4       0.25020    0.97933    0.25075   1.00
C3       0.28281    1.04244    0.23660   1.00
C3       0.28511    0.95756    0.24519   1.00
C4       0.21586    1.04150    0.26087   1.00
C4       0.21500    0.95850    0.25767   1.00
C2       0.25061    1.10352    0.24985   1.00
C2       0.25060    0.89648    0.24982   1.00
C3       0.28314    1.08310    0.23732   1.00
C3       0.28504    0.91690    0.24441   1.00
C3       0.21713    1.08306    0.26099   1.00
C3       0.21604    0.91694    0.25692   1.00
H1       0.30867    1.02888    0.22503   1.00
H1       0.31329    0.97112    0.24228   1.00
C5       0.18143    1.02065    0.27147   1.00
C5       0.17989    0.97935    0.26570   1.00
H1       0.30883    1.09886    0.22781   1.00
H1       0.31204    0.90114    0.23979   1.00
H1       0.19226    1.10053    0.26907   1.00
H1       0.19046    0.89947    0.26237   1.00
C6       0.14724    1.04234    0.29024   1.00
C6       0.14089    0.95766    0.26655   1.00
H2       0.13251    1.02358    0.31214   1.00
H2       0.15709    1.06737    0.30804   1.00
C6       0.11850    1.05724    0.25921   1.00
H2       0.11718    0.97642    0.25496   1.00
H2       0.14052    0.93263    0.24621   1.00
C6       0.13152    0.94276    0.30780   1.00
H2       0.10716    1.03274    0.24119   1.00
C6       0.08429    1.07832    0.27842   1.00
H2       0.13369    1.07760    0.23894   1.00
C6       0.09230    0.92168    0.30828   1.00
H2       0.15482    0.92240    0.31776   1.00
H2       0.13072    0.96726    0.32907   1.00
H2       0.06822    1.05822    0.29814   1.00
H2       0.09477    1.10380    0.29552   1.00
H2       0.06378    1.08898    0.25569   1.00
H2       0.06851    0.94178    0.29924   1.00
H2       0.09282    0.89620    0.28823   1.00
H2       0.08590    0.91102    0.33821   1.00
C4       -0.02067   0.74925    0.25020   1.00
C4       0.02067    0.75075    0.24980   1.00
C3       -0.04244   0.73660    0.21719   1.00
C3       0.04244    0.74519    0.21489   1.00
C4       -0.04150   0.76087    0.28414   1.00
C4       0.04150    0.75767    0.28500   1.00
C2       -0.10352   0.74985    0.24939   1.00
C2       0.10352    0.74982    0.24940   1.00
C3       -0.08310   0.73732    0.21686   1.00
C3       0.08310    0.74441    0.21496   1.00
C3       -0.08306   0.76099    0.28287   1.00
C3       0.08306    0.75692    0.28396   1.00
H1       -0.02888   0.72503    0.19133   1.00
H1       0.02888    0.74228    0.18671   1.00
C5       -0.02065   0.77147    0.31857   1.00
C5       0.02065    0.76570    0.32011   1.00
H1       -0.09886   0.72781    0.19117   1.00
H1       0.09886    0.73979    0.18796   1.00
H1       -0.10053   0.76907    0.30774   1.00
H1       0.10053    0.76237    0.30954   1.00
C6       -0.04234   0.79024    0.35276   1.00
C6       0.04234    0.76655    0.35911   1.00
H2       -0.02358   0.81214    0.36749   1.00
H2       -0.06737   0.80804    0.34291   1.00
C6       -0.05724   0.75921    0.38150   1.00
H2       0.02358    0.75496    0.38282   1.00
H2       0.06737    0.74621    0.35948   1.00
C6       0.05724    0.80780    0.36848   1.00
H2       -0.03274   0.74119    0.39284   1.00
C6       -0.07832   0.77842    0.41571   1.00
H2       -0.07760   0.73894    0.36631   1.00
C6       0.07832    0.80828    0.40770   1.00
H2       0.07760    0.81776    0.34518   1.00
H2       0.03274    0.82907    0.36928   1.00
H2       -0.05822   0.79814    0.43178   1.00
H2       -0.10380   0.79552    0.40523   1.00
H2       -0.08898   0.75569    0.43622   1.00
H2       0.05822    0.79924    0.43149   1.00
H2       0.10380    0.78823    0.40718   1.00
H2       0.08898    0.83821    0.41410   1.00
C4       0.52067    0.74925    0.24980   1.00
C4       0.47933    0.75075    0.25020   1.00
C3       0.54244    0.73660    0.28281   1.00
C3       0.45756    0.74519    0.28511   1.00
C4       0.54150    0.76087    0.21586   1.00
C4       0.45850    0.75767    0.21500   1.00
C2       0.60352    0.74985    0.25061   1.00
C2       0.39648    0.74982    0.25060   1.00
C3       0.58310    0.73732    0.28314   1.00
C3       0.41690    0.74441    0.28504   1.00
C3       0.58306    0.76099    0.21713   1.00
C3       0.41694    0.75692    0.21604   1.00
H1       0.52888    0.72503    0.30867   1.00
H1       0.47112    0.74228    0.31329   1.00
C5       0.52065    0.77147    0.18143   1.00
C5       0.47935    0.76570    0.17989   1.00
H1       0.59886    0.72781    0.30883   1.00
H1       0.40114    0.73979    0.31204   1.00
H1       0.60053    0.76907    0.19226   1.00
H1       0.39947    0.76237    0.19046   1.00
C6       0.54234    0.79024    0.14724   1.00
C6       0.45766    0.76655    0.14089   1.00
H2       0.52358    0.81214    0.13251   1.00
H2       0.56737    0.80804    0.15709   1.00
C6       0.55724    0.75921    0.11850   1.00
H2       0.47642    0.75496    0.11718   1.00
H2       0.43263    0.74621    0.14052   1.00
C6       0.44276    0.80780    0.13152   1.00
H2       0.53274    0.74119    0.10716   1.00
C6       0.57832    0.77842    0.08429   1.00
H2       0.57760    0.73894    0.13369   1.00
C6       0.42168    0.80828    0.09230   1.00
H2       0.42240    0.81776    0.15482   1.00
H2       0.46726    0.82907    0.13072   1.00
H2       0.55822    0.79814    0.06822   1.00
H2       0.60380    0.79552    0.09477   1.00
H2       0.58898    0.75569    0.06378   1.00
H2       0.44178    0.79924    0.06851   1.00
H2       0.39620    0.78823    0.09282   1.00
H2       0.41102    0.83821    0.08590   1.00
C4       0.25020    0.47933    0.24925   1.00
C4       0.24980    0.52067    0.25075   1.00
C3       0.21719    0.45756    0.23660   1.00
C3       0.21489    0.54244    0.24519   1.00
C4       0.28414    0.45850    0.26087   1.00
C4       0.28500    0.54150    0.25767   1.00
C2       0.24939    0.39648    0.24985   1.00
C2       0.24940    0.60352    0.24982   1.00
C3       0.21686    0.41690    0.23732   1.00
C3       0.21496    0.58310    0.24441   1.00
C3       0.28287    0.41694    0.26099   1.00
C3       0.28396    0.58306    0.25692   1.00
H1       0.19133    0.47112    0.22503   1.00
H1       0.18671    0.52888    0.24228   1.00
C5       0.31857    0.47935    0.27147   1.00
C5       0.32011    0.52065    0.26570   1.00
H1       0.19117    0.40114    0.22781   1.00
H1       0.18796    0.59886    0.23979   1.00
H1       0.30774    0.39947    0.26907   1.00
H1       0.30954    0.60053    0.26237   1.00
C6       0.35276    0.45766    0.29024   1.00
C6       0.35911    0.54234    0.26655   1.00
H2       0.36749    0.47642    0.31214   1.00
H2       0.34291    0.43263    0.30804   1.00
C6       0.38150    0.44276    0.25921   1.00
H2       0.38282    0.52358    0.25496   1.00
H2       0.35948    0.56737    0.24621   1.00
C6       0.36848    0.55724    0.30780   1.00
H2       0.39284    0.46726    0.24119   1.00
C6       0.41571    0.42168    0.27842   1.00
H2       0.36631    0.42240    0.23894   1.00
C6       0.40770    0.57832    0.30828   1.00
H2       0.34518    0.57760    0.31776   1.00
H2       0.36928    0.53274    0.32907   1.00
H2       0.43178    0.44178    0.29814   1.00
H2       0.40523    0.39620    0.29552   1.00
H2       0.43622    0.41102    0.25569   1.00
H2       0.43149    0.55822    0.29924   1.00
H2       0.40718    0.60380    0.28823   1.00
H2       0.41410    0.58898    0.33821   1.00
C4       0.24925    0.75020    -0.02067   1.00
C4       0.25075    0.74980    0.02067   1.00
C3       0.23660    0.71719    -0.04244   1.00
C3       0.24519    0.71489    0.04244   1.00
C4       0.26087    0.78414    -0.04150   1.00
C4       0.25767    0.78500    0.04150   1.00
C2       0.24985    0.74939    -0.10352   1.00
C2       0.24982    0.74940    0.10352   1.00
C3       0.23732    0.71686    -0.08310   1.00
C3       0.24441    0.71496    0.08310   1.00
C3       0.26099    0.78287    -0.08306   1.00
C3       0.25692    0.78396    0.08306   1.00
H1       0.22503    0.69133    -0.02888   1.00
H1       0.24228    0.68671    0.02888   1.00
C5       0.27147    0.81857    -0.02065   1.00
C5       0.26570    0.82011    0.02065   1.00
H1       0.22781    0.69117    -0.09886   1.00
H1       0.23979    0.68796    0.09886   1.00
H1       0.26907    0.80774    -0.10053   1.00
H1       0.26237    0.80954    0.10053   1.00
C6       0.29024    0.85276    -0.04234   1.00
C6       0.26655    0.85911    0.04234   1.00
H2       0.31214    0.86749    -0.02358   1.00
H2       0.30804    0.84291    -0.06737   1.00
C6       0.25921    0.88150    -0.05724   1.00
H2       0.25496    0.88282    0.02358   1.00
H2       0.24621    0.85948    0.06737   1.00
C6       0.30780    0.86848    0.05724   1.00
H2       0.24119    0.89284    -0.03274   1.00
C6       0.27842    0.91571    -0.07832   1.00
H2       0.23894    0.86631    -0.07760   1.00
C6       0.30828    0.90770    0.07832   1.00
H2       0.31776    0.84518    0.07760   1.00
H2       0.32907    0.86928    0.03274   1.00
H2       0.29814    0.93178    -0.05822   1.00
H2       0.29552    0.90523    -0.10380   1.00
H2       0.25569    0.93622    -0.08898   1.00
H2       0.29924    0.93149    0.05822   1.00
H2       0.28823    0.90718    0.10380   1.00
H2       0.33821    0.91410    0.08898   1.00
C4       0.74925    0.24980    0.52067   1.00
C4       0.75075    0.25020    0.47933   1.00
C3       0.73660    0.28281    0.54244   1.00
C3       0.74519    0.28511    0.45756   1.00
C4       0.76087    0.21586    0.54150   1.00
C4       0.75767    0.21500    0.45850   1.00
C2       0.74985    0.25061    0.60352   1.00
C2       0.74982    0.25060    0.39648   1.00
C3       0.73732    0.28314    0.58310   1.00
C3       0.74441    0.28504    0.41690   1.00
C3       0.76099    0.21713    0.58306   1.00
C3       0.75692    0.21604    0.41694   1.00
H1       0.72503    0.30867    0.52888   1.00
H1       0.74228    0.31329    0.47112   1.00
C5       0.77147    0.18143    0.52065   1.00
C5       0.76570    0.17989    0.47935   1.00
H1       0.72781    0.30883    0.59886   1.00
H1       0.73979    0.31204    0.40114   1.00
H1       0.76907    0.19226    0.60053   1.00
H1       0.76237    0.19046    0.39947   1.00
C6       0.79024    0.14724    0.54234   1.00
C6       0.76655    0.14089    0.45766   1.00
H2       0.81214    0.13251    0.52358   1.00
H2       0.80804    0.15709    0.56737   1.00
C6       0.75921    0.11850    0.55724   1.00
H2       0.75496    0.11718    0.47642   1.00
H2       0.74621    0.14052    0.43263   1.00
C6       0.80780    0.13152    0.44276   1.00
H2       0.74119    0.10716    0.53274   1.00
C6       0.77842    0.08429    0.57832   1.00
H2       0.73894    0.13369    0.57760   1.00
C6       0.80828    0.09230    0.42168   1.00
H2       0.81776    0.15482    0.42240   1.00
H2       0.82907    0.13072    0.46726   1.00
H2       0.79814    0.06822    0.55822   1.00
H2       0.79552    0.09477    0.60380   1.00
H2       0.75569    0.06378    0.58898   1.00
H2       0.79924    0.06851    0.44178   1.00
H2       0.78823    0.09282    0.39620   1.00
H2       0.83821    0.08590    0.41102   1.00
C4       0.74980    0.52067    0.24925   1.00
C4       0.75020    0.47933    0.25075   1.00
C3       0.78281    0.54244    0.23660   1.00
C3       0.78511    0.45756    0.24519   1.00
C4       0.71586    0.54150    0.26087   1.00
C4       0.71500    0.45850    0.25767   1.00
C2       0.75061    0.60352    0.24985   1.00
C2       0.75060    0.39648    0.24982   1.00
C3       0.78314    0.58310    0.23732   1.00
C3       0.78504    0.41690    0.24441   1.00
C3       0.71713    0.58306    0.26099   1.00
C3       0.71604    0.41694    0.25692   1.00
H1       0.80867    0.52888    0.22503   1.00
H1       0.81329    0.47112    0.24228   1.00
C5       0.68143    0.52065    0.27147   1.00
C5       0.67989    0.47935    0.26570   1.00
H1       0.80883    0.59886    0.22781   1.00
H1       0.81204    0.40114    0.23979   1.00
H1       0.69226    0.60053    0.26907   1.00
H1       0.69046    0.39947    0.26237   1.00
C6       0.64724    0.54234    0.29024   1.00
C6       0.64089    0.45766    0.26655   1.00
H2       0.63251    0.52358    0.31214   1.00
H2       0.65709    0.56737    0.30804   1.00
C6       0.61850    0.55724    0.25921   1.00
H2       0.61718    0.47642    0.25496   1.00
H2       0.64052    0.43263    0.24621   1.00
C6       0.63152    0.44276    0.30780   1.00
H2       0.60716    0.53274    0.24119   1.00
C6       0.58429    0.57832    0.27842   1.00
H2       0.63369    0.57760    0.23894   1.00
C6       0.59230    0.42168    0.30828   1.00
H2       0.65482    0.42240    0.31776   1.00
H2       0.63072    0.46726    0.32907   1.00
H2       0.56822    0.55822    0.29814   1.00
H2       0.59477    0.60380    0.29552   1.00
H2       0.56378    0.58898    0.25569   1.00
H2       0.56851    0.44178    0.29924   1.00
H2       0.59282    0.39620    0.28823   1.00
H2       0.58590    0.41102    0.33821   1.00
C4       0.47933    0.24925    0.25020   1.00
C4       0.52067    0.25075    0.24980   1.00
C3       0.45756    0.23660    0.21719   1.00
C3       0.54244    0.24519    0.21489   1.00
C4       0.45850    0.26087    0.28414   1.00
C4       0.54150    0.25767    0.28500   1.00
C2       0.39648    0.24985    0.24939   1.00
C2       0.60352    0.24982    0.24940   1.00
C3       0.41690    0.23732    0.21686   1.00
C3       0.58310    0.24441    0.21496   1.00
C3       0.41694    0.26099    0.28287   1.00
C3       0.58306    0.25692    0.28396   1.00
H1       0.47112    0.22503    0.19133   1.00
H1       0.52888    0.24228    0.18671   1.00
C5       0.47935    0.27147    0.31857   1.00
C5       0.52065    0.26570    0.32011   1.00
H1       0.40114    0.22781    0.19117   1.00
H1       0.59886    0.23979    0.18796   1.00
H1       0.39947    0.26907    0.30774   1.00
H1       0.60053    0.26237    0.30954   1.00
C6       0.45766    0.29024    0.35276   1.00
C6       0.54234    0.26655    0.35911   1.00
H2       0.47642    0.31214    0.36749   1.00
H2       0.43263    0.30804    0.34291   1.00
C6       0.44276    0.25921    0.38150   1.00
H2       0.52358    0.25496    0.38282   1.00
H2       0.56737    0.24621    0.35948   1.00
C6       0.55724    0.30780    0.36848   1.00
H2       0.46726    0.24119    0.39284   1.00
C6       0.42168    0.27842    0.41571   1.00
H2       0.42240    0.23894    0.36631   1.00
C6       0.57832    0.30828    0.40770   1.00
H2       0.57760    0.31776    0.34518   1.00
H2       0.53274    0.32907    0.36928   1.00
H2       0.44178    0.29814    0.43178   1.00
H2       0.39620    0.29552    0.40523   1.00
H2       0.41102    0.25569    0.43622   1.00
H2       0.55822    0.29924    0.43149   1.00
H2       0.60380    0.28823    0.40718   1.00
H2       0.58898    0.33821    0.41410   1.00
C4       1.02067    0.24925    0.24980   1.00
C4       0.97933    0.25075    0.25020   1.00
C3       1.04244    0.23660    0.28281   1.00
C3       0.95756    0.24519    0.28511   1.00
C4       1.04150    0.26087    0.21586   1.00
C4       0.95850    0.25767    0.21500   1.00
C2       1.10352    0.24985    0.25061   1.00
C2       0.89648    0.24982    0.25060   1.00
C3       1.08310    0.23732    0.28314   1.00
C3       0.91690    0.24441    0.28504   1.00
C3       1.08306    0.26099    0.21713   1.00
C3       0.91694    0.25692    0.21604   1.00
H1       1.02888    0.22503    0.30867   1.00
H1       0.97112    0.24228    0.31329   1.00
C5       1.02065    0.27147    0.18143   1.00
C5       0.97935    0.26570    0.17989   1.00
H1       1.09886    0.22781    0.30883   1.00
H1       0.90114    0.23979    0.31204   1.00
H1       1.10053    0.26907    0.19226   1.00
H1       0.89947    0.26237    0.19046   1.00
C6       1.04234    0.29024    0.14724   1.00
C6       0.95766    0.26655    0.14089   1.00
H2       1.02358    0.31214    0.13251   1.00
H2       1.06737    0.30804    0.15709   1.00
C6       1.05724    0.25921    0.11850   1.00
H2       0.97642    0.25496    0.11718   1.00
H2       0.93263    0.24621    0.14052   1.00
C6       0.94276    0.30780    0.13152   1.00
H2       1.03274    0.24119    0.10716   1.00
C6       1.07832    0.27842    0.08429   1.00
H2       1.07760    0.23894    0.13369   1.00
C6       0.92168    0.30828    0.09230   1.00
H2       0.92240    0.31776    0.15482   1.00
H2       0.96726    0.32907    0.13072   1.00
H2       1.05822    0.29814    0.06822   1.00
H2       1.10380    0.29552    0.09477   1.00
H2       1.08898    0.25569    0.06378   1.00
H2       0.94178    0.29924    0.06851   1.00
H2       0.89620    0.28823    0.09282   1.00
H2       0.91102    0.33821    0.08590   1.00
C4       0.75020    -0.02067   0.24925   1.00
C4       0.74980    0.02067    0.25075   1.00
C3       0.71719    -0.04244   0.23660   1.00
C3       0.71489    0.04244    0.24519   1.00
C4       0.78414    -0.04150   0.26087   1.00
C4       0.78500    0.04150    0.25767   1.00
C2       0.74939    -0.10352   0.24985   1.00
C2       0.74940    0.10352    0.24982   1.00
C3       0.71686    -0.08310   0.23732   1.00
C3       0.71496    0.08310    0.24441   1.00
C3       0.78287    -0.08306   0.26099   1.00
C3       0.78396    0.08306    0.25692   1.00
H1       0.69133    -0.02888   0.22503   1.00
H1       0.68671    0.02888    0.24228   1.00
C5       0.81857    -0.02065   0.27147   1.00
C5       0.82011    0.02065    0.26570   1.00
H1       0.69117    -0.09886   0.22781   1.00
H1       0.68796    0.09886    0.23979   1.00
H1       0.80774    -0.10053   0.26907   1.00
H1       0.80954    0.10053    0.26237   1.00
C6       0.85276    -0.04234   0.29024   1.00
C6       0.85911    0.04234    0.26655   1.00
H2       0.86749    -0.02358   0.31214   1.00
H2       0.84291    -0.06737   0.30804   1.00
C6       0.88150    -0.05724   0.25921   1.00
H2       0.88282    0.02358    0.25496   1.00
H2       0.85948    0.06737    0.24621   1.00
C6       0.86848    0.05724    0.30780   1.00
H2       0.89284    -0.03274   0.24119   1.00
C6       0.91571    -0.07832   0.27842   1.00
H2       0.86631    -0.07760   0.23894   1.00
C6       0.90770    0.07832    0.30828   1.00
H2       0.84518    0.07760    0.31776   1.00
H2       0.86928    0.03274    0.32907   1.00
H2       0.93178    -0.05822   0.29814   1.00
H2       0.90523    -0.10380   0.29552   1.00
H2       0.93622    -0.08898   0.25569   1.00
H2       0.93149    0.05822    0.29924   1.00
H2       0.90718    0.10380    0.28823   1.00
H2       0.91410    0.08898    0.33821   1.00
C4       0.74925    0.25020    -0.02067   1.00
C4       0.75075    0.24980    0.02067   1.00
C3       0.73660    0.21719    -0.04244   1.00
C3       0.74519    0.21489    0.04244   1.00
C4       0.76087    0.28414    -0.04150   1.00
C4       0.75767    0.28500    0.04150   1.00
C2       0.74985    0.24939    -0.10352   1.00
C2       0.74982    0.24940    0.10352   1.00
C3       0.73732    0.21686    -0.08310   1.00
C3       0.74441    0.21496    0.08310   1.00
C3       0.76099    0.28287    -0.08306   1.00
C3       0.75692    0.28396    0.08306   1.00
H1       0.72503    0.19133    -0.02888   1.00
H1       0.74228    0.18671    0.02888   1.00
C5       0.77147    0.31857    -0.02065   1.00
C5       0.76570    0.32011    0.02065   1.00
H1       0.72781    0.19117    -0.09886   1.00
H1       0.73979    0.18796    0.09886   1.00
H1       0.76907    0.30774    -0.10053   1.00
H1       0.76237    0.30954    0.10053   1.00
C6       0.79024    0.35276    -0.04234   1.00
C6       0.76655    0.35911    0.04234   1.00
H2       0.81214    0.36749    -0.02358   1.00
H2       0.80804    0.34291    -0.06737   1.00
C6       0.75921    0.38150    -0.05724   1.00
H2       0.75496    0.38282    0.02358   1.00
H2       0.74621    0.35948    0.06737   1.00
C6       0.80780    0.36848    0.05724   1.00
H2       0.74119    0.39284    -0.03274   1.00
C6       0.77842    0.41571    -0.07832   1.00
H2       0.73894    0.36631    -0.07760   1.00
C6       0.80828    0.40770    0.07832   1.00
H2       0.81776    0.34518    0.07760   1.00
H2       0.82907    0.36928    0.03274   1.00
H2       0.79814    0.43178    -0.05822   1.00
H2       0.79552    0.40523    -0.10380   1.00
H2       0.75569    0.43622    -0.08898   1.00
H2       0.79924    0.43149    0.05822   1.00
H2       0.78823    0.40718    0.10380   1.00
H2       0.83821    0.41410    0.08898   1.00
C4       0.91425    0.91480    1.18567   1.00
C4       0.91575    0.91520    1.14433   1.00
C3       0.90160    0.94781    1.20744   1.00
C3       0.91019    0.95011    1.12256   1.00
C4       0.92587    0.88086    1.20650   1.00
C4       0.92267    0.88000    1.12350   1.00
C2       0.91485    0.91561    1.26852   1.00
C2       0.91482    0.91560    1.06148   1.00
C3       0.90232    0.94814    1.24810   1.00
C3       0.90941    0.95004    1.08190   1.00
C3       0.92599    0.88213    1.24806   1.00
C3       0.92192    0.88104    1.08194   1.00
H1       0.89003    0.97367    1.19388   1.00
H1       0.90728    0.97829    1.13612   1.00
C5       0.93647    0.84643    1.18565   1.00
C5       0.93070    0.84489    1.14435   1.00
H1       0.89281    0.97383    1.26386   1.00
H1       0.90479    0.97704    1.06614   1.00
H1       0.93407    0.85726    1.26553   1.00
H1       0.92737    0.85546    1.06447   1.00
C6       0.95524    0.81224    1.20734   1.00
C6       0.93155    0.80589    1.12266   1.00
H2       0.97714    0.79751    1.18858   1.00
H2       0.97304    0.82209    1.23237   1.00
C6       0.92421    0.78350    1.22224   1.00
H2       0.91996    0.78218    1.14142   1.00
H2       0.91121    0.80552    1.09763   1.00
C6       0.97280    0.79652    1.10776   1.00
H2       0.90619    0.77216    1.19774   1.00
C6       0.94342    0.74929    1.24332   1.00
H2       0.90394    0.79869    1.24260   1.00
C6       0.97328    0.75730    1.08668   1.00
H2       0.98276    0.81982    1.08740   1.00
H2       0.99407    0.79572    1.13226   1.00
H2       0.96314    0.73322    1.22322   1.00
H2       0.96052    0.75977    1.26880   1.00
H2       0.92069    0.72878    1.25398   1.00
H2       0.96424    0.73351    1.10678   1.00
H2       0.95323    0.75782    1.06120   1.00
H2       1.00321    0.75090    1.07602   1.00
C4       0.91480    1.18567    0.91425   1.00
C4       0.91520    1.14433    0.91575   1.00
C3       0.94781    1.20744    0.90160   1.00
C3       0.95011    1.12256    0.91019   1.00
C4       0.88086    1.20650    0.92587   1.00
C4       0.88000    1.12350    0.92267   1.00
C2       0.91561    1.26852    0.91485   1.00
C2       0.91560    1.06148    0.91482   1.00
C3       0.94814    1.24810    0.90232   1.00
C3       0.95004    1.08190    0.90941   1.00
C3       0.88213    1.24806    0.92599   1.00
C3       0.88104    1.08194    0.92192   1.00
H1       0.97367    1.19388    0.89003   1.00
H1       0.97829    1.13612    0.90728   1.00
C5       0.84643    1.18565    0.93647   1.00
C5       0.84489    1.14435    0.93070   1.00
H1       0.97383    1.26386    0.89281   1.00
H1       0.97704    1.06614    0.90479   1.00
H1       0.85726    1.26553    0.93407   1.00
H1       0.85546    1.06447    0.92737   1.00
C6       0.81224    1.20734    0.95524   1.00
C6       0.80589    1.12266    0.93155   1.00
H2       0.79751    1.18858    0.97714   1.00
H2       0.82209    1.23237    0.97304   1.00
C6       0.78350    1.22224    0.92421   1.00
H2       0.78218    1.14142    0.91996   1.00
H2       0.80552    1.09763    0.91121   1.00
C6       0.79652    1.10776    0.97280   1.00
H2       0.77216    1.19774    0.90619   1.00
C6       0.74929    1.24332    0.94342   1.00
H2       0.79869    1.24260    0.90394   1.00
C6       0.75730    1.08668    0.97328   1.00
H2       0.81982    1.08740    0.98276   1.00
H2       0.79572    1.13226    0.99407   1.00
H2       0.73322    1.22322    0.96314   1.00
H2       0.75977    1.26880    0.96052   1.00
H2       0.72878    1.25398    0.92069   1.00
H2       0.73351    1.10678    0.96424   1.00
H2       0.75782    1.06120    0.95323   1.00
H2       0.75090    1.07602    1.00321   1.00
C4       0.64433    0.91425    0.91520   1.00
C4       0.68567    0.91575    0.91480   1.00
C3       0.62256    0.90160    0.88219   1.00
C3       0.70744    0.91019    0.87989   1.00
C4       0.62350    0.92587    0.94914   1.00
C4       0.70650    0.92267    0.95000   1.00
C2       0.56148    0.91485    0.91439   1.00
C2       0.76852    0.91482    0.91440   1.00
C3       0.58190    0.90232    0.88186   1.00
C3       0.74810    0.90941    0.87996   1.00
C3       0.58194    0.92599    0.94787   1.00
C3       0.74806    0.92192    0.94896   1.00
H1       0.63612    0.89003    0.85633   1.00
H1       0.69388    0.90728    0.85171   1.00
C5       0.64435    0.93647    0.98357   1.00
C5       0.68565    0.93070    0.98511   1.00
H1       0.56614    0.89281    0.85617   1.00
H1       0.76386    0.90479    0.85296   1.00
H1       0.56447    0.93407    0.97274   1.00
H1       0.76553    0.92737    0.97454   1.00
C6       0.62266    0.95524    1.01776   1.00
C6       0.70734    0.93155    1.02411   1.00
H2       0.64142    0.97714    1.03249   1.00
H2       0.59763    0.97304    1.00791   1.00
C6       0.60776    0.92421    1.04650   1.00
H2       0.68858    0.91996    1.04782   1.00
H2       0.73237    0.91121    1.02448   1.00
C6       0.72224    0.97280    1.03348   1.00
H2       0.63226    0.90619    1.05784   1.00
C6       0.58668    0.94342    1.08071   1.00
H2       0.58740    0.90394    1.03131   1.00
C6       0.74332    0.97328    1.07270   1.00
H2       0.74260    0.98276    1.01018   1.00
H2       0.69774    0.99407    1.03428   1.00
H2       0.60678    0.96314    1.09678   1.00
H2       0.56120    0.96052    1.07023   1.00
H2       0.57602    0.92069    1.10122   1.00
H2       0.72322    0.96424    1.09649   1.00
H2       0.76880    0.95323    1.07218   1.00
H2       0.75398    1.00321    1.07910   1.00
C4       1.18567    0.91425    0.91480   1.00
C4       1.14433    0.91575    0.91520   1.00
C3       1.20744    0.90160    0.94781   1.00
C3       1.12256    0.91019    0.95011   1.00
C4       1.20650    0.92587    0.88086   1.00
C4       1.12350    0.92267    0.88000   1.00
C2       1.26852    0.91485    0.91561   1.00
C2       1.06148    0.91482    0.91560   1.00
C3       1.24810    0.90232    0.94814   1.00
C3       1.08190    0.90941    0.95004   1.00
C3       1.24806    0.92599    0.88213   1.00
C3       1.08194    0.92192    0.88104   1.00
H1       1.19388    0.89003    0.97367   1.00
H1       1.13612    0.90728    0.97829   1.00
C5       1.18565    0.93647    0.84643   1.00
C5       1.14435    0.93070    0.84489   1.00
H1       1.26386    0.89281    0.97383   1.00
H1       1.06614    0.90479    0.97704   1.00
H1       1.26553    0.93407    0.85726   1.00
H1       1.06447    0.92737    0.85546   1.00
C6       1.20734    0.95524    0.81224   1.00
C6       1.12266    0.93155    0.80589   1.00
H2       1.18858    0.97714    0.79751   1.00
H2       1.23237    0.97304    0.82209   1.00
C6       1.22224    0.92421    0.78350   1.00
H2       1.14142    0.91996    0.78218   1.00
H2       1.09763    0.91121    0.80552   1.00
C6       1.10776    0.97280    0.79652   1.00
H2       1.19774    0.90619    0.77216   1.00
C6       1.24332    0.94342    0.74929   1.00
H2       1.24260    0.90394    0.79869   1.00
C6       1.08668    0.97328    0.75730   1.00
H2       1.08740    0.98276    0.81982   1.00
H2       1.13226    0.99407    0.79572   1.00
H2       1.22322    0.96314    0.73322   1.00
H2       1.26880    0.96052    0.75977   1.00
H2       1.25398    0.92069    0.72878   1.00
H2       1.10678    0.96424    0.73351   1.00
H2       1.06120    0.95323    0.75782   1.00
H2       1.07602    1.00321    0.75090   1.00
C4       0.91520    0.64433    0.91425   1.00
C4       0.91480    0.68567    0.91575   1.00
C3       0.88219    0.62256    0.90160   1.00
C3       0.87989    0.70744    0.91019   1.00
C4       0.94914    0.62350    0.92587   1.00
C4       0.95000    0.70650    0.92267   1.00
C2       0.91439    0.56148    0.91485   1.00
C2       0.91440    0.76852    0.91482   1.00
C3       0.88186    0.58190    0.90232   1.00
C3       0.87996    0.74810    0.90941   1.00
C3       0.94787    0.58194    0.92599   1.00
C3       0.94896    0.74806    0.92192   1.00
H1       0.85633    0.63612    0.89003   1.00
H1       0.85171    0.69388    0.90728   1.00
C5       0.98357    0.64435    0.93647   1.00
C5       0.98511    0.68565    0.93070   1.00
H1       0.85617    0.56614    0.89281   1.00
H1       0.85296    0.76386    0.90479   1.00
H1       0.97274    0.56447    0.93407   1.00
H1       0.97454    0.76553    0.92737   1.00
C6       1.01776    0.62266    0.95524   1.00
C6       1.02411    0.70734    0.93155   1.00
H2       1.03249    0.64142    0.97714   1.00
H2       1.00791    0.59763    0.97304   1.00
C6       1.04650    0.60776    0.92421   1.00
H2       1.04782    0.68858    0.91996   1.00
H2       1.02448    0.73237    0.91121   1.00
C6       1.03348    0.72224    0.97280   1.00
H2       1.05784    0.63226    0.90619   1.00
C6       1.08071    0.58668    0.94342   1.00
H2       1.03131    0.58740    0.90394   1.00
C6       1.07270    0.74332    0.97328   1.00
H2       1.01018    0.74260    0.98276   1.00
H2       1.03428    0.69774    0.99407   1.00
H2       1.09678    0.60678    0.96314   1.00
H2       1.07023    0.56120    0.96052   1.00
H2       1.10122    0.57602    0.92069   1.00
H2       1.09649    0.72322    0.96424   1.00
H2       1.07218    0.76880    0.95323   1.00
H2       1.07910    0.75398    1.00321   1.00
C4       0.91425    0.91520    0.64433   1.00
C4       0.91575    0.91480    0.68567   1.00
C3       0.90160    0.88219    0.62256   1.00
C3       0.91019    0.87989    0.70744   1.00
C4       0.92587    0.94914    0.62350   1.00
C4       0.92267    0.95000    0.70650   1.00
C2       0.91485    0.91439    0.56148   1.00
C2       0.91482    0.91440    0.76852   1.00
C3       0.90232    0.88186    0.58190   1.00
C3       0.90941    0.87996    0.74810   1.00
C3       0.92599    0.94787    0.58194   1.00
C3       0.92192    0.94896    0.74806   1.00
H1       0.89003    0.85633    0.63612   1.00
H1       0.90728    0.85171    0.69388   1.00
C5       0.93647    0.98357    0.64435   1.00
C5       0.93070    0.98511    0.68565   1.00
H1       0.89281    0.85617    0.56614   1.00
H1       0.90479    0.85296    0.76386   1.00
H1       0.93407    0.97274    0.56447   1.00
H1       0.92737    0.97454    0.76553   1.00
C6       0.95524    1.01776    0.62266   1.00
C6       0.93155    1.02411    0.70734   1.00
H2       0.97714    1.03249    0.64142   1.00
H2       0.97304    1.00791    0.59763   1.00
C6       0.92421    1.04650    0.60776   1.00
H2       0.91996    1.04782    0.68858   1.00
H2       0.91121    1.02448    0.73237   1.00
C6       0.97280    1.03348    0.72224   1.00
H2       0.90619    1.05784    0.63226   1.00
C6       0.94342    1.08071    0.58668   1.00
H2       0.90394    1.03131    0.58740   1.00
C6       0.97328    1.07270    0.74332   1.00
H2       0.98276    1.01018    0.74260   1.00
H2       0.99407    1.03428    0.69774   1.00
H2       0.96314    1.09678    0.60678   1.00
H2       0.96052    1.07023    0.56120   1.00
H2       0.92069    1.10122    0.57602   1.00
H2       0.96424    1.09649    0.72322   1.00
H2       0.95323    1.07218    0.76880   1.00
H2       1.00321    1.07910    0.75398   1.00
C4       0.41425    0.41480    1.18567   1.00
C4       0.41575    0.41520    1.14433   1.00
C3       0.40160    0.44781    1.20744   1.00
C3       0.41019    0.45011    1.12256   1.00
C4       0.42587    0.38086    1.20650   1.00
C4       0.42267    0.38000    1.12350   1.00
C2       0.41485    0.41561    1.26852   1.00
C2       0.41482    0.41560    1.06148   1.00
C3       0.40232    0.44814    1.24810   1.00
C3       0.40941    0.45004    1.08190   1.00
C3       0.42599    0.38213    1.24806   1.00
C3       0.42192    0.38104    1.08194   1.00
H1       0.39003    0.47367    1.19388   1.00
H1       0.40728    0.47829    1.13612   1.00
C5       0.43647    0.34643    1.18565   1.00
C5       0.43070    0.34489    1.14435   1.00
H1       0.39281    0.47383    1.26386   1.00
H1       0.40479    0.47704    1.06614   1.00
H1       0.43407    0.35726    1.26553   1.00
H1       0.42737    0.35546    1.06447   1.00
C6       0.45524    0.31224    1.20734   1.00
C6       0.43155    0.30589    1.12266   1.00
H2       0.47714    0.29751    1.18858   1.00
H2       0.47304    0.32209    1.23237   1.00
C6       0.42421    0.28350    1.22224   1.00
H2       0.41996    0.28218    1.14142   1.00
H2       0.41121    0.30552    1.09763   1.00
C6       0.47280    0.29652    1.10776   1.00
H2       0.40619    0.27216    1.19774   1.00
C6       0.44342    0.24929    1.24332   1.00
H2       0.40394    0.29869    1.24260   1.00
C6       0.47328    0.25730    1.08668   1.00
H2       0.48276    0.31982    1.08740   1.00
H2       0.49407    0.29572    1.13226   1.00
H2       0.46314    0.23322    1.22322   1.00
H2       0.46052    0.25977    1.26880   1.00
H2       0.42069    0.22878    1.25398   1.00
H2       0.46424    0.23351    1.10678   1.00
H2       0.45323    0.25782    1.06120   1.00
H2       0.50321    0.25090    1.07602   1.00
C4       0.41480    0.68567    0.91425   1.00
C4       0.41520    0.64433    0.91575   1.00
C3       0.44781    0.70744    0.90160   1.00
C3       0.45011    0.62256    0.91019   1.00
C4       0.38086    0.70650    0.92587   1.00
C4       0.38000    0.62350    0.92267   1.00
C2       0.41561    0.76852    0.91485   1.00
C2       0.41560    0.56148    0.91482   1.00
C3       0.44814    0.74810    0.90232   1.00
C3       0.45004    0.58190    0.90941   1.00
C3       0.38213    0.74806    0.92599   1.00
C3       0.38104    0.58194    0.92192   1.00
H1       0.47367    0.69388    0.89003   1.00
H1       0.47829    0.63612    0.90728   1.00
C5       0.34643    0.68565    0.93647   1.00
C5       0.34489    0.64435    0.93070   1.00
H1       0.47383    0.76386    0.89281   1.00
H1       0.47704    0.56614    0.90479   1.00
H1       0.35726    0.76553    0.93407   1.00
H1       0.35546    0.56447    0.92737   1.00
C6       0.31224    0.70734    0.95524   1.00
C6       0.30589    0.62266    0.93155   1.00
H2       0.29751    0.68858    0.97714   1.00
H2       0.32209    0.73237    0.97304   1.00
C6       0.28350    0.72224    0.92421   1.00
H2       0.28218    0.64142    0.91996   1.00
H2       0.30552    0.59763    0.91121   1.00
C6       0.29652    0.60776    0.97280   1.00
H2       0.27216    0.69774    0.90619   1.00
C6       0.24929    0.74332    0.94342   1.00
H2       0.29869    0.74260    0.90394   1.00
C6       0.25730    0.58668    0.97328   1.00
H2       0.31982    0.58740    0.98276   1.00
H2       0.29572    0.63226    0.99407   1.00
H2       0.23322    0.72322    0.96314   1.00
H2       0.25977    0.76880    0.96052   1.00
H2       0.22878    0.75398    0.92069   1.00
H2       0.23351    0.60678    0.96424   1.00
H2       0.25782    0.56120    0.95323   1.00
H2       0.25090    0.57602    1.00321   1.00
C4       0.14433    0.41425    0.91520   1.00
C4       0.18567    0.41575    0.91480   1.00
C3       0.12256    0.40160    0.88219   1.00
C3       0.20744    0.41019    0.87989   1.00
C4       0.12350    0.42587    0.94914   1.00
C4       0.20650    0.42267    0.95000   1.00
C2       0.06148    0.41485    0.91439   1.00
C2       0.26852    0.41482    0.91440   1.00
C3       0.08190    0.40232    0.88186   1.00
C3       0.24810    0.40941    0.87996   1.00
C3       0.08194    0.42599    0.94787   1.00
C3       0.24806    0.42192    0.94896   1.00
H1       0.13612    0.39003    0.85633   1.00
H1       0.19388    0.40728    0.85171   1.00
C5       0.14435    0.43647    0.98357   1.00
C5       0.18565    0.43070    0.98511   1.00
H1       0.06614    0.39281    0.85617   1.00
H1       0.26386    0.40479    0.85296   1.00
H1       0.06447    0.43407    0.97274   1.00
H1       0.26553    0.42737    0.97454   1.00
C6       0.12266    0.45524    1.01776   1.00
C6       0.20734    0.43155    1.02411   1.00
H2       0.14142    0.47714    1.03249   1.00
H2       0.09763    0.47304    1.00791   1.00
C6       0.10776    0.42421    1.04650   1.00
H2       0.18858    0.41996    1.04782   1.00
H2       0.23237    0.41121    1.02448   1.00
C6       0.22224    0.47280    1.03348   1.00
H2       0.13226    0.40619    1.05784   1.00
C6       0.08668    0.44342    1.08071   1.00
H2       0.08740    0.40394    1.03131   1.00
C6       0.24332    0.47328    1.07270   1.00
H2       0.24260    0.48276    1.01018   1.00
H2       0.19774    0.49407    1.03428   1.00
H2       0.10678    0.46314    1.09678   1.00
H2       0.06120    0.46052    1.07023   1.00
H2       0.07602    0.42069    1.10122   1.00
H2       0.22322    0.46424    1.09649   1.00
H2       0.26880    0.45323    1.07218   1.00
H2       0.25398    0.50321    1.07910   1.00
C4       0.68567    0.41425    0.91480   1.00
C4       0.64433    0.41575    0.91520   1.00
C3       0.70744    0.40160    0.94781   1.00
C3       0.62256    0.41019    0.95011   1.00
C4       0.70650    0.42587    0.88086   1.00
C4       0.62350    0.42267    0.88000   1.00
C2       0.76852    0.41485    0.91561   1.00
C2       0.56148    0.41482    0.91560   1.00
C3       0.74810    0.40232    0.94814   1.00
C3       0.58190    0.40941    0.95004   1.00
C3       0.74806    0.42599    0.88213   1.00
C3       0.58194    0.42192    0.88104   1.00
H1       0.69388    0.39003    0.97367   1.00
H1       0.63612    0.40728    0.97829   1.00
C5       0.68565    0.43647    0.84643   1.00
C5       0.64435    0.43070    0.84489   1.00
H1       0.76386    0.39281    0.97383   1.00
H1       0.56614    0.40479    0.97704   1.00
H1       0.76553    0.43407    0.85726   1.00
H1       0.56447    0.42737    0.85546   1.00
C6       0.70734    0.45524    0.81224   1.00
C6       0.62266    0.43155    0.80589   1.00
H2       0.68858    0.47714    0.79751   1.00
H2       0.73237    0.47304    0.82209   1.00
C6       0.72224    0.42421    0.78350   1.00
H2       0.64142    0.41996    0.78218   1.00
H2       0.59763    0.41121    0.80552   1.00
C6       0.60776    0.47280    0.79652   1.00
H2       0.69774    0.40619    0.77216   1.00
C6       0.74332    0.44342    0.74929   1.00
H2       0.74260    0.40394    0.79869   1.00
C6       0.58668    0.47328    0.75730   1.00
H2       0.58740    0.48276    0.81982   1.00
H2       0.63226    0.49407    0.79572   1.00
H2       0.72322    0.46314    0.73322   1.00
H2       0.76880    0.46052    0.75977   1.00
H2       0.75398    0.42069    0.72878   1.00
H2       0.60678    0.46424    0.73351   1.00
H2       0.56120    0.45323    0.75782   1.00
H2       0.57602    0.50321    0.75090   1.00
C4       0.41520    0.14433    0.91425   1.00
C4       0.41480    0.18567    0.91575   1.00
C3       0.38219    0.12256    0.90160   1.00
C3       0.37989    0.20744    0.91019   1.00
C4       0.44914    0.12350    0.92587   1.00
C4       0.45000    0.20650    0.92267   1.00
C2       0.41439    0.06148    0.91485   1.00
C2       0.41440    0.26852    0.91482   1.00
C3       0.38186    0.08190    0.90232   1.00
C3       0.37996    0.24810    0.90941   1.00
C3       0.44787    0.08194    0.92599   1.00
C3       0.44896    0.24806    0.92192   1.00
H1       0.35633    0.13612    0.89003   1.00
H1       0.35171    0.19388    0.90728   1.00
C5       0.48357    0.14435    0.93647   1.00
C5       0.48511    0.18565    0.93070   1.00
H1       0.35617    0.06614    0.89281   1.00
H1       0.35296    0.26386    0.90479   1.00
H1       0.47274    0.06447    0.93407   1.00
H1       0.47454    0.26553    0.92737   1.00
C6       0.51776    0.12266    0.95524   1.00
C6       0.52411    0.20734    0.93155   1.00
H2       0.53249    0.14142    0.97714   1.00
H2       0.50791    0.09763    0.97304   1.00
C6       0.54650    0.10776    0.92421   1.00
H2       0.54782    0.18858    0.91996   1.00
H2       0.52448    0.23237    0.91121   1.00
C6       0.53348    0.22224    0.97280   1.00
H2       0.55784    0.13226    0.90619   1.00
C6       0.58071    0.08668    0.94342   1.00
H2       0.53131    0.08740    0.90394   1.00
C6       0.57270    0.24332    0.97328   1.00
H2       0.51018    0.24260    0.98276   1.00
H2       0.53428    0.19774    0.99407   1.00
H2       0.59678    0.10678    0.96314   1.00
H2       0.57023    0.06120    0.96052   1.00
H2       0.60122    0.07602    0.92069   1.00
H2       0.59649    0.22322    0.96424   1.00
H2       0.57218    0.26880    0.95323   1.00
H2       0.57910    0.25398    1.00321   1.00
C4       0.41425    0.41520    0.64433   1.00
C4       0.41575    0.41480    0.68567   1.00
C3       0.40160    0.38219    0.62256   1.00
C3       0.41019    0.37989    0.70744   1.00
C4       0.42587    0.44914    0.62350   1.00
C4       0.42267    0.45000    0.70650   1.00
C2       0.41485    0.41439    0.56148   1.00
C2       0.41482    0.41440    0.76852   1.00
C3       0.40232    0.38186    0.58190   1.00
C3       0.40941    0.37996    0.74810   1.00
C3       0.42599    0.44787    0.58194   1.00
C3       0.42192    0.44896    0.74806   1.00
H1       0.39003    0.35633    0.63612   1.00
H1       0.40728    0.35171    0.69388   1.00
C5       0.43647    0.48357    0.64435   1.00
C5       0.43070    0.48511    0.68565   1.00
H1       0.39281    0.35617    0.56614   1.00
H1       0.40479    0.35296    0.76386   1.00
H1       0.43407    0.47274    0.56447   1.00
H1       0.42737    0.47454    0.76553   1.00
C6       0.45524    0.51776    0.62266   1.00
C6       0.43155    0.52411    0.70734   1.00
H2       0.47714    0.53249    0.64142   1.00
H2       0.47304    0.50791    0.59763   1.00
C6       0.42421    0.54650    0.60776   1.00
H2       0.41996    0.54782    0.68858   1.00
H2       0.41121    0.52448    0.73237   1.00
C6       0.47280    0.53348    0.72224   1.00
H2       0.40619    0.55784    0.63226   1.00
C6       0.44342    0.58071    0.58668   1.00
H2       0.40394    0.53131    0.58740   1.00
C6       0.47328    0.57270    0.74332   1.00
H2       0.48276    0.51018    0.74260   1.00
H2       0.49407    0.53428    0.69774   1.00
H2       0.46314    0.59678    0.60678   1.00
H2       0.46052    0.57023    0.56120   1.00
H2       0.42069    0.60122    0.57602   1.00
H2       0.46424    0.59649    0.72322   1.00
H2       0.45323    0.57218    0.76880   1.00
H2       0.50321    0.57910    0.75398   1.00
C4       0.41425    0.91480    0.68567   1.00
C4       0.41575    0.91520    0.64433   1.00
C3       0.40160    0.94781    0.70744   1.00
C3       0.41019    0.95011    0.62256   1.00
C4       0.42587    0.88086    0.70650   1.00
C4       0.42267    0.88000    0.62350   1.00
C2       0.41485    0.91561    0.76852   1.00
C2       0.41482    0.91560    0.56148   1.00
C3       0.40232    0.94814    0.74810   1.00
C3       0.40941    0.95004    0.58190   1.00
C3       0.42599    0.88213    0.74806   1.00
C3       0.42192    0.88104    0.58194   1.00
H1       0.39003    0.97367    0.69388   1.00
H1       0.40728    0.97829    0.63612   1.00
C5       0.43647    0.84643    0.68565   1.00
C5       0.43070    0.84489    0.64435   1.00
H1       0.39281    0.97383    0.76386   1.00
H1       0.40479    0.97704    0.56614   1.00
H1       0.43407    0.85726    0.76553   1.00
H1       0.42737    0.85546    0.56447   1.00
C6       0.45524    0.81224    0.70734   1.00
C6       0.43155    0.80589    0.62266   1.00
H2       0.47714    0.79751    0.68858   1.00
H2       0.47304    0.82209    0.73237   1.00
C6       0.42421    0.78350    0.72224   1.00
H2       0.41996    0.78218    0.64142   1.00
H2       0.41121    0.80552    0.59763   1.00
C6       0.47280    0.79652    0.60776   1.00
H2       0.40619    0.77216    0.69774   1.00
C6       0.44342    0.74929    0.74332   1.00
H2       0.40394    0.79869    0.74260   1.00
C6       0.47328    0.75730    0.58668   1.00
H2       0.48276    0.81982    0.58740   1.00
H2       0.49407    0.79572    0.63226   1.00
H2       0.46314    0.73322    0.72322   1.00
H2       0.46052    0.75977    0.76880   1.00
H2       0.42069    0.72878    0.75398   1.00
H2       0.46424    0.73351    0.60678   1.00
H2       0.45323    0.75782    0.56120   1.00
H2       0.50321    0.75090    0.57602   1.00
C4       0.41480    1.18567    0.41425   1.00
C4       0.41520    1.14433    0.41575   1.00
C3       0.44781    1.20744    0.40160   1.00
C3       0.45011    1.12256    0.41019   1.00
C4       0.38086    1.20650    0.42587   1.00
C4       0.38000    1.12350    0.42267   1.00
C2       0.41561    1.26852    0.41485   1.00
C2       0.41560    1.06148    0.41482   1.00
C3       0.44814    1.24810    0.40232   1.00
C3       0.45004    1.08190    0.40941   1.00
C3       0.38213    1.24806    0.42599   1.00
C3       0.38104    1.08194    0.42192   1.00
H1       0.47367    1.19388    0.39003   1.00
H1       0.47829    1.13612    0.40728   1.00
C5       0.34643    1.18565    0.43647   1.00
C5       0.34489    1.14435    0.43070   1.00
H1       0.47383    1.26386    0.39281   1.00
H1       0.47704    1.06614    0.40479   1.00
H1       0.35726    1.26553    0.43407   1.00
H1       0.35546    1.06447    0.42737   1.00
C6       0.31224    1.20734    0.45524   1.00
C6       0.30589    1.12266    0.43155   1.00
H2       0.29751    1.18858    0.47714   1.00
H2       0.32209    1.23237    0.47304   1.00
C6       0.28350    1.22224    0.42421   1.00
H2       0.28218    1.14142    0.41996   1.00
H2       0.30552    1.09763    0.41121   1.00
C6       0.29652    1.10776    0.47280   1.00
H2       0.27216    1.19774    0.40619   1.00
C6       0.24929    1.24332    0.44342   1.00
H2       0.29869    1.24260    0.40394   1.00
C6       0.25730    1.08668    0.47328   1.00
H2       0.31982    1.08740    0.48276   1.00
H2       0.29572    1.13226    0.49407   1.00
H2       0.23322    1.22322    0.46314   1.00
H2       0.25977    1.26880    0.46052   1.00
H2       0.22878    1.25398    0.42069   1.00
H2       0.23351    1.10678    0.46424   1.00
H2       0.25782    1.06120    0.45323   1.00
H2       0.25090    1.07602    0.50321   1.00
C4       0.14433    0.91425    0.41520   1.00
C4       0.18567    0.91575    0.41480   1.00
C3       0.12256    0.90160    0.38219   1.00
C3       0.20744    0.91019    0.37989   1.00
C4       0.12350    0.92587    0.44914   1.00
C4       0.20650    0.92267    0.45000   1.00
C2       0.06148    0.91485    0.41439   1.00
C2       0.26852    0.91482    0.41440   1.00
C3       0.08190    0.90232    0.38186   1.00
C3       0.24810    0.90941    0.37996   1.00
C3       0.08194    0.92599    0.44787   1.00
C3       0.24806    0.92192    0.44896   1.00
H1       0.13612    0.89003    0.35633   1.00
H1       0.19388    0.90728    0.35171   1.00
C5       0.14435    0.93647    0.48357   1.00
C5       0.18565    0.93070    0.48511   1.00
H1       0.06614    0.89281    0.35617   1.00
H1       0.26386    0.90479    0.35296   1.00
H1       0.06447    0.93407    0.47274   1.00
H1       0.26553    0.92737    0.47454   1.00
C6       0.12266    0.95524    0.51776   1.00
C6       0.20734    0.93155    0.52411   1.00
H2       0.14142    0.97714    0.53249   1.00
H2       0.09763    0.97304    0.50791   1.00
C6       0.10776    0.92421    0.54650   1.00
H2       0.18858    0.91996    0.54782   1.00
H2       0.23237    0.91121    0.52448   1.00
C6       0.22224    0.97280    0.53348   1.00
H2       0.13226    0.90619    0.55784   1.00
C6       0.08668    0.94342    0.58071   1.00
H2       0.08740    0.90394    0.53131   1.00
C6       0.24332    0.97328    0.57270   1.00
H2       0.24260    0.98276    0.51018   1.00
H2       0.19774    0.99407    0.53428   1.00
H2       0.10678    0.96314    0.59678   1.00
H2       0.06120    0.96052    0.57023   1.00
H2       0.07602    0.92069    0.60122   1.00
H2       0.22322    0.96424    0.59649   1.00
H2       0.26880    0.95323    0.57218   1.00
H2       0.25398    1.00321    0.57910   1.00
C4       0.68567    0.91425    0.41480   1.00
C4       0.64433    0.91575    0.41520   1.00
C3       0.70744    0.90160    0.44781   1.00
C3       0.62256    0.91019    0.45011   1.00
C4       0.70650    0.92587    0.38086   1.00
C4       0.62350    0.92267    0.38000   1.00
C2       0.76852    0.91485    0.41561   1.00
C2       0.56148    0.91482    0.41560   1.00
C3       0.74810    0.90232    0.44814   1.00
C3       0.58190    0.90941    0.45004   1.00
C3       0.74806    0.92599    0.38213   1.00
C3       0.58194    0.92192    0.38104   1.00
H1       0.69388    0.89003    0.47367   1.00
H1       0.63612    0.90728    0.47829   1.00
C5       0.68565    0.93647    0.34643   1.00
C5       0.64435    0.93070    0.34489   1.00
H1       0.76386    0.89281    0.47383   1.00
H1       0.56614    0.90479    0.47704   1.00
H1       0.76553    0.93407    0.35726   1.00
H1       0.56447    0.92737    0.35546   1.00
C6       0.70734    0.95524    0.31224   1.00
C6       0.62266    0.93155    0.30589   1.00
H2       0.68858    0.97714    0.29751   1.00
H2       0.73237    0.97304    0.32209   1.00
C6       0.72224    0.92421    0.28350   1.00
H2       0.64142    0.91996    0.28218   1.00
H2       0.59763    0.91121    0.30552   1.00
C6       0.60776    0.97280    0.29652   1.00
H2       0.69774    0.90619    0.27216   1.00
C6       0.74332    0.94342    0.24929   1.00
H2       0.74260    0.90394    0.29869   1.00
C6       0.58668    0.97328    0.25730   1.00
H2       0.58740    0.98276    0.31982   1.00
H2       0.63226    0.99407    0.29572   1.00
H2       0.72322    0.96314    0.23322   1.00
H2       0.76880    0.96052    0.25977   1.00
H2       0.75398    0.92069    0.22878   1.00
H2       0.60678    0.96424    0.23351   1.00
H2       0.56120    0.95323    0.25782   1.00
H2       0.57602    1.00321    0.25090   1.00
C4       0.41520    0.64433    0.41425   1.00
C4       0.41480    0.68567    0.41575   1.00
C3       0.38219    0.62256    0.40160   1.00
C3       0.37989    0.70744    0.41019   1.00
C4       0.44914    0.62350    0.42587   1.00
C4       0.45000    0.70650    0.42267   1.00
C2       0.41439    0.56148    0.41485   1.00
C2       0.41440    0.76852    0.41482   1.00
C3       0.38186    0.58190    0.40232   1.00
C3       0.37996    0.74810    0.40941   1.00
C3       0.44787    0.58194    0.42599   1.00
C3       0.44896    0.74806    0.42192   1.00
H1       0.35633    0.63612    0.39003   1.00
H1       0.35171    0.69388    0.40728   1.00
C5       0.48357    0.64435    0.43647   1.00
C5       0.48511    0.68565    0.43070   1.00
H1       0.35617    0.56614    0.39281   1.00
H1       0.35296    0.76386    0.40479   1.00
H1       0.47274    0.56447    0.43407   1.00
H1       0.47454    0.76553    0.42737   1.00
C6       0.51776    0.62266    0.45524   1.00
C6       0.52411    0.70734    0.43155   1.00
H2       0.53249    0.64142    0.47714   1.00
H2       0.50791    0.59763    0.47304   1.00
C6       0.54650    0.60776    0.42421   1.00
H2       0.54782    0.68858    0.41996   1.00
H2       0.52448    0.73237    0.41121   1.00
C6       0.53348    0.72224    0.47280   1.00
H2       0.55784    0.63226    0.40619   1.00
C6       0.58071    0.58668    0.44342   1.00
H2       0.53131    0.58740    0.40394   1.00
C6       0.57270    0.74332    0.47328   1.00
H2       0.51018    0.74260    0.48276   1.00
H2       0.53428    0.69774    0.49407   1.00
H2       0.59678    0.60678    0.46314   1.00
H2       0.57023    0.56120    0.46052   1.00
H2       0.60122    0.57602    0.42069   1.00
H2       0.59649    0.72322    0.46424   1.00
H2       0.57218    0.76880    0.45323   1.00
H2       0.57910    0.75398    0.50321   1.00
C4       0.41425    0.91520    0.14433   1.00
C4       0.41575    0.91480    0.18567   1.00
C3       0.40160    0.88219    0.12256   1.00
C3       0.41019    0.87989    0.20744   1.00
C4       0.42587    0.94914    0.12350   1.00
C4       0.42267    0.95000    0.20650   1.00
C2       0.41485    0.91439    0.06148   1.00
C2       0.41482    0.91440    0.26852   1.00
C3       0.40232    0.88186    0.08190   1.00
C3       0.40941    0.87996    0.24810   1.00
C3       0.42599    0.94787    0.08194   1.00
C3       0.42192    0.94896    0.24806   1.00
H1       0.39003    0.85633    0.13612   1.00
H1       0.40728    0.85171    0.19388   1.00
C5       0.43647    0.98357    0.14435   1.00
C5       0.43070    0.98511    0.18565   1.00
H1       0.39281    0.85617    0.06614   1.00
H1       0.40479    0.85296    0.26386   1.00
H1       0.43407    0.97274    0.06447   1.00
H1       0.42737    0.97454    0.26553   1.00
C6       0.45524    1.01776    0.12266   1.00
C6       0.43155    1.02411    0.20734   1.00
H2       0.47714    1.03249    0.14142   1.00
H2       0.47304    1.00791    0.09763   1.00
C6       0.42421    1.04650    0.10776   1.00
H2       0.41996    1.04782    0.18858   1.00
H2       0.41121    1.02448    0.23237   1.00
C6       0.47280    1.03348    0.22224   1.00
H2       0.40619    1.05784    0.13226   1.00
C6       0.44342    1.08071    0.08668   1.00
H2       0.40394    1.03131    0.08740   1.00
C6       0.47328    1.07270    0.24332   1.00
H2       0.48276    1.01018    0.24260   1.00
H2       0.49407    1.03428    0.19774   1.00
H2       0.46314    1.09678    0.10678   1.00
H2       0.46052    1.07023    0.06120   1.00
H2       0.42069    1.10122    0.07602   1.00
H2       0.46424    1.09649    0.22322   1.00
H2       0.45323    1.07218    0.26880   1.00
H2       0.50321    1.07910    0.25398   1.00
C4       0.91425    0.41480    0.68567   1.00
C4       0.91575    0.41520    0.64433   1.00
C3       0.90160    0.44781    0.70744   1.00
C3       0.91019    0.45011    0.62256   1.00
C4       0.92587    0.38086    0.70650   1.00
C4       0.92267    0.38000    0.62350   1.00
C2       0.91485    0.41561    0.76852   1.00
C2       0.91482    0.41560    0.56148   1.00
C3       0.90232    0.44814    0.74810   1.00
C3       0.90941    0.45004    0.58190   1.00
C3       0.92599    0.38213    0.74806   1.00
C3       0.92192    0.38104    0.58194   1.00
H1       0.89003    0.47367    0.69388   1.00
H1       0.90728    0.47829    0.63612   1.00
C5       0.93647    0.34643    0.68565   1.00
C5       0.93070    0.34489    0.64435   1.00
H1       0.89281    0.47383    0.76386   1.00
H1       0.90479    0.47704    0.56614   1.00
H1       0.93407    0.35726    0.76553   1.00
H1       0.92737    0.35546    0.56447   1.00
C6       0.95524    0.31224    0.70734   1.00
C6       0.93155    0.30589    0.62266   1.00
H2       0.97714    0.29751    0.68858   1.00
H2       0.97304    0.32209    0.73237   1.00
C6       0.92421    0.28350    0.72224   1.00
H2       0.91996    0.28218    0.64142   1.00
H2       0.91121    0.30552    0.59763   1.00
C6       0.97280    0.29652    0.60776   1.00
H2       0.90619    0.27216    0.69774   1.00
C6       0.94342    0.24929    0.74332   1.00
H2       0.90394    0.29869    0.74260   1.00
C6       0.97328    0.25730    0.58668   1.00
H2       0.98276    0.31982    0.58740   1.00
H2       0.99407    0.29572    0.63226   1.00
H2       0.96314    0.23322    0.72322   1.00
H2       0.96052    0.25977    0.76880   1.00
H2       0.92069    0.22878    0.75398   1.00
H2       0.96424    0.23351    0.60678   1.00
H2       0.95323    0.25782    0.56120   1.00
H2       1.00321    0.25090    0.57602   1.00
C4       0.91480    0.68567    0.41425   1.00
C4       0.91520    0.64433    0.41575   1.00
C3       0.94781    0.70744    0.40160   1.00
C3       0.95011    0.62256    0.41019   1.00
C4       0.88086    0.70650    0.42587   1.00
C4       0.88000    0.62350    0.42267   1.00
C2       0.91561    0.76852    0.41485   1.00
C2       0.91560    0.56148    0.41482   1.00
C3       0.94814    0.74810    0.40232   1.00
C3       0.95004    0.58190    0.40941   1.00
C3       0.88213    0.74806    0.42599   1.00
C3       0.88104    0.58194    0.42192   1.00
H1       0.97367    0.69388    0.39003   1.00
H1       0.97829    0.63612    0.40728   1.00
C5       0.84643    0.68565    0.43647   1.00
C5       0.84489    0.64435    0.43070   1.00
H1       0.97383    0.76386    0.39281   1.00
H1       0.97704    0.56614    0.40479   1.00
H1       0.85726    0.76553    0.43407   1.00
H1       0.85546    0.56447    0.42737   1.00
C6       0.81224    0.70734    0.45524   1.00
C6       0.80589    0.62266    0.43155   1.00
H2       0.79751    0.68858    0.47714   1.00
H2       0.82209    0.73237    0.47304   1.00
C6       0.78350    0.72224    0.42421   1.00
H2       0.78218    0.64142    0.41996   1.00
H2       0.80552    0.59763    0.41121   1.00
C6       0.79652    0.60776    0.47280   1.00
H2       0.77216    0.69774    0.40619   1.00
C6       0.74929    0.74332    0.44342   1.00
H2       0.79869    0.74260    0.40394   1.00
C6       0.75730    0.58668    0.47328   1.00
H2       0.81982    0.58740    0.48276   1.00
H2       0.79572    0.63226    0.49407   1.00
H2       0.73322    0.72322    0.46314   1.00
H2       0.75977    0.76880    0.46052   1.00
H2       0.72878    0.75398    0.42069   1.00
H2       0.73351    0.60678    0.46424   1.00
H2       0.75782    0.56120    0.45323   1.00
H2       0.75090    0.57602    0.50321   1.00
C4       0.64433    0.41425    0.41520   1.00
C4       0.68567    0.41575    0.41480   1.00
C3       0.62256    0.40160    0.38219   1.00
C3       0.70744    0.41019    0.37989   1.00
C4       0.62350    0.42587    0.44914   1.00
C4       0.70650    0.42267    0.45000   1.00
C2       0.56148    0.41485    0.41439   1.00
C2       0.76852    0.41482    0.41440   1.00
C3       0.58190    0.40232    0.38186   1.00
C3       0.74810    0.40941    0.37996   1.00
C3       0.58194    0.42599    0.44787   1.00
C3       0.74806    0.42192    0.44896   1.00
H1       0.63612    0.39003    0.35633   1.00
H1       0.69388    0.40728    0.35171   1.00
C5       0.64435    0.43647    0.48357   1.00
C5       0.68565    0.43070    0.48511   1.00
H1       0.56614    0.39281    0.35617   1.00
H1       0.76386    0.40479    0.35296   1.00
H1       0.56447    0.43407    0.47274   1.00
H1       0.76553    0.42737    0.47454   1.00
C6       0.62266    0.45524    0.51776   1.00
C6       0.70734    0.43155    0.52411   1.00
H2       0.64142    0.47714    0.53249   1.00
H2       0.59763    0.47304    0.50791   1.00
C6       0.60776    0.42421    0.54650   1.00
H2       0.68858    0.41996    0.54782   1.00
H2       0.73237    0.41121    0.52448   1.00
C6       0.72224    0.47280    0.53348   1.00
H2       0.63226    0.40619    0.55784   1.00
C6       0.58668    0.44342    0.58071   1.00
H2       0.58740    0.40394    0.53131   1.00
C6       0.74332    0.47328    0.57270   1.00
H2       0.74260    0.48276    0.51018   1.00
H2       0.69774    0.49407    0.53428   1.00
H2       0.60678    0.46314    0.59678   1.00
H2       0.56120    0.46052    0.57023   1.00
H2       0.57602    0.42069    0.60122   1.00
H2       0.72322    0.46424    0.59649   1.00
H2       0.76880    0.45323    0.57218   1.00
H2       0.75398    0.50321    0.57910   1.00
C4       1.18567    0.41425    0.41480   1.00
C4       1.14433    0.41575    0.41520   1.00
C3       1.20744    0.40160    0.44781   1.00
C3       1.12256    0.41019    0.45011   1.00
C4       1.20650    0.42587    0.38086   1.00
C4       1.12350    0.42267    0.38000   1.00
C2       1.26852    0.41485    0.41561   1.00
C2       1.06148    0.41482    0.41560   1.00
C3       1.24810    0.40232    0.44814   1.00
C3       1.08190    0.40941    0.45004   1.00
C3       1.24806    0.42599    0.38213   1.00
C3       1.08194    0.42192    0.38104   1.00
H1       1.19388    0.39003    0.47367   1.00
H1       1.13612    0.40728    0.47829   1.00
C5       1.18565    0.43647    0.34643   1.00
C5       1.14435    0.43070    0.34489   1.00
H1       1.26386    0.39281    0.47383   1.00
H1       1.06614    0.40479    0.47704   1.00
H1       1.26553    0.43407    0.35726   1.00
H1       1.06447    0.42737    0.35546   1.00
C6       1.20734    0.45524    0.31224   1.00
C6       1.12266    0.43155    0.30589   1.00
H2       1.18858    0.47714    0.29751   1.00
H2       1.23237    0.47304    0.32209   1.00
C6       1.22224    0.42421    0.28350   1.00
H2       1.14142    0.41996    0.28218   1.00
H2       1.09763    0.41121    0.30552   1.00
C6       1.10776    0.47280    0.29652   1.00
H2       1.19774    0.40619    0.27216   1.00
C6       1.24332    0.44342    0.24929   1.00
H2       1.24260    0.40394    0.29869   1.00
C6       1.08668    0.47328    0.25730   1.00
H2       1.08740    0.48276    0.31982   1.00
H2       1.13226    0.49407    0.29572   1.00
H2       1.22322    0.46314    0.23322   1.00
H2       1.26880    0.46052    0.25977   1.00
H2       1.25398    0.42069    0.22878   1.00
H2       1.10678    0.46424    0.23351   1.00
H2       1.06120    0.45323    0.25782   1.00
H2       1.07602    0.50321    0.25090   1.00
C4       0.91520    0.14433    0.41425   1.00
C4       0.91480    0.18567    0.41575   1.00
C3       0.88219    0.12256    0.40160   1.00
C3       0.87989    0.20744    0.41019   1.00
C4       0.94914    0.12350    0.42587   1.00
C4       0.95000    0.20650    0.42267   1.00
C2       0.91439    0.06148    0.41485   1.00
C2       0.91440    0.26852    0.41482   1.00
C3       0.88186    0.08190    0.40232   1.00
C3       0.87996    0.24810    0.40941   1.00
C3       0.94787    0.08194    0.42599   1.00
C3       0.94896    0.24806    0.42192   1.00
H1       0.85633    0.13612    0.39003   1.00
H1       0.85171    0.19388    0.40728   1.00
C5       0.98357    0.14435    0.43647   1.00
C5       0.98511    0.18565    0.43070   1.00
H1       0.85617    0.06614    0.39281   1.00
H1       0.85296    0.26386    0.40479   1.00
H1       0.97274    0.06447    0.43407   1.00
H1       0.97454    0.26553    0.42737   1.00
C6       1.01776    0.12266    0.45524   1.00
C6       1.02411    0.20734    0.43155   1.00
H2       1.03249    0.14142    0.47714   1.00
H2       1.00791    0.09763    0.47304   1.00
C6       1.04650    0.10776    0.42421   1.00
H2       1.04782    0.18858    0.41996   1.00
H2       1.02448    0.23237    0.41121   1.00
C6       1.03348    0.22224    0.47280   1.00
H2       1.05784    0.13226    0.40619   1.00
C6       1.08071    0.08668    0.44342   1.00
H2       1.03131    0.08740    0.40394   1.00
C6       1.07270    0.24332    0.47328   1.00
H2       1.01018    0.24260    0.48276   1.00
H2       1.03428    0.19774    0.49407   1.00
H2       1.09678    0.10678    0.46314   1.00
H2       1.07023    0.06120    0.46052   1.00
H2       1.10122    0.07602    0.42069   1.00
H2       1.09649    0.22322    0.46424   1.00
H2       1.07218    0.26880    0.45323   1.00
H2       1.07910    0.25398    0.50321   1.00
C4       0.91425    0.41520    0.14433   1.00
C4       0.91575    0.41480    0.18567   1.00
C3       0.90160    0.38219    0.12256   1.00
C3       0.91019    0.37989    0.20744   1.00
C4       0.92587    0.44914    0.12350   1.00
C4       0.92267    0.45000    0.20650   1.00
C2       0.91485    0.41439    0.06148   1.00
C2       0.91482    0.41440    0.26852   1.00
C3       0.90232    0.38186    0.08190   1.00
C3       0.90941    0.37996    0.24810   1.00
C3       0.92599    0.44787    0.08194   1.00
C3       0.92192    0.44896    0.24806   1.00
H1       0.89003    0.35633    0.13612   1.00
H1       0.90728    0.35171    0.19388   1.00
C5       0.93647    0.48357    0.14435   1.00
C5       0.93070    0.48511    0.18565   1.00
H1       0.89281    0.35617    0.06614   1.00
H1       0.90479    0.35296    0.26386   1.00
H1       0.93407    0.47274    0.06447   1.00
H1       0.92737    0.47454    0.26553   1.00
C6       0.95524    0.51776    0.12266   1.00
C6       0.93155    0.52411    0.20734   1.00
H2       0.97714    0.53249    0.14142   1.00
H2       0.97304    0.50791    0.09763   1.00
C6       0.92421    0.54650    0.10776   1.00
H2       0.91996    0.54782    0.18858   1.00
H2       0.91121    0.52448    0.23237   1.00
C6       0.97280    0.53348    0.22224   1.00
H2       0.90619    0.55784    0.13226   1.00
C6       0.94342    0.58071    0.08668   1.00
H2       0.90394    0.53131    0.08740   1.00
C6       0.97328    0.57270    0.24332   1.00
H2       0.98276    0.51018    0.24260   1.00
H2       0.99407    0.53428    0.19774   1.00
H2       0.96314    0.59678    0.10678   1.00
H2       0.96052    0.57023    0.06120   1.00
H2       0.92069    0.60122    0.07602   1.00
H2       0.96424    0.59649    0.22322   1.00
H2       0.95323    0.57218    0.26880   1.00
H2       1.00321    0.57910    0.25398   1.00
