data_IRMOF10_SG202_interpen_Ligand9cp_label_e.

_audit_creation_method             'generated by an auxiliary program of Tobunporous'

_symmetry_space_group_name_H-M     'P 1'
_symmetry_Int_Tables_number        1
_symmetry_cell_setting             triclinic

_cell_length_a                    34.2800
_cell_length_b                    34.2800
_cell_length_c                    34.2800
_cell_angle_alpha                 90.0000
_cell_angle_beta                  90.0000
_cell_angle_gamma                 90.0000

loop_
_atom_site_label
_atom_site_fract_x
_atom_site_fract_y
_atom_site_fract_z
_atom_site_occupancy
O1       0.75000    0.75000    0.75000   1.00
Zn1      0.71720    0.78280    0.78280   1.00
Zn1      0.78280    0.71720    0.78280   1.00
Zn1      0.78280    0.78280    0.71720   1.00
Zn1      0.71720    0.71720    0.71720   1.00
O2       0.72650    0.77350    0.83820   1.00
O2       0.72650    0.83820    0.77350   1.00
O2       0.66180    0.77350    0.77350   1.00
O2       0.77350    0.72650    0.83820   1.00
O2       0.83820    0.72650    0.77350   1.00
O2       0.77350    0.66180    0.77350   1.00
O2       0.77350    0.83820    0.72650   1.00
O2       0.83820    0.77350    0.72650   1.00
O2       0.77350    0.77350    0.66180   1.00
O2       0.66180    0.72650    0.72650   1.00
O2       0.72650    0.66180    0.72650   1.00
O2       0.72650    0.72650    0.66180   1.00
C1       0.75000    0.75000    0.85520   1.00
C1       0.75000    0.85520    0.75000   1.00
C1       0.64480    0.75000    0.75000   1.00
C1       0.85520    0.75000    0.75000   1.00
C1       0.75000    0.64480    0.75000   1.00
C1       0.75000    0.75000    0.64480   1.00
O1       0.25000    0.25000    0.75000   1.00
Zn1      0.21720    0.28280    0.78280   1.00
Zn1      0.28280    0.21720    0.78280   1.00
Zn1      0.28280    0.28280    0.71720   1.00
Zn1      0.21720    0.21720    0.71720   1.00
O2       0.22650    0.27350    0.83820   1.00
O2       0.22650    0.33820    0.77350   1.00
O2       0.16180    0.27350    0.77350   1.00
O2       0.27350    0.22650    0.83820   1.00
O2       0.33820    0.22650    0.77350   1.00
O2       0.27350    0.16180    0.77350   1.00
O2       0.27350    0.33820    0.72650   1.00
O2       0.33820    0.27350    0.72650   1.00
O2       0.27350    0.27350    0.66180   1.00
O2       0.16180    0.22650    0.72650   1.00
O2       0.22650    0.16180    0.72650   1.00
O2       0.22650    0.22650    0.66180   1.00
C1       0.25000    0.25000    0.85520   1.00
C1       0.25000    0.35520    0.75000   1.00
C1       0.14480    0.25000    0.75000   1.00
C1       0.35520    0.25000    0.75000   1.00
C1       0.25000    0.14480    0.75000   1.00
C1       0.25000    0.25000    0.64480   1.00
O1       0.25000    0.75000    0.25000   1.00
Zn1      0.21720    0.78280    0.28280   1.00
Zn1      0.28280    0.71720    0.28280   1.00
Zn1      0.28280    0.78280    0.21720   1.00
Zn1      0.21720    0.71720    0.21720   1.00
O2       0.22650    0.77350    0.33820   1.00
O2       0.22650    0.83820    0.27350   1.00
O2       0.16180    0.77350    0.27350   1.00
O2       0.27350    0.72650    0.33820   1.00
O2       0.33820    0.72650    0.27350   1.00
O2       0.27350    0.66180    0.27350   1.00
O2       0.27350    0.83820    0.22650   1.00
O2       0.33820    0.77350    0.22650   1.00
O2       0.27350    0.77350    0.16180   1.00
O2       0.16180    0.72650    0.22650   1.00
O2       0.22650    0.66180    0.22650   1.00
O2       0.22650    0.72650    0.16180   1.00
C1       0.25000    0.75000    0.35520   1.00
C1       0.25000    0.85520    0.25000   1.00
C1       0.14480    0.75000    0.25000   1.00
C1       0.35520    0.75000    0.25000   1.00
C1       0.25000    0.64480    0.25000   1.00
C1       0.25000    0.75000    0.14480   1.00
O1       0.75000    0.25000    0.25000   1.00
Zn1      0.71720    0.28280    0.28280   1.00
Zn1      0.78280    0.21720    0.28280   1.00
Zn1      0.78280    0.28280    0.21720   1.00
Zn1      0.71720    0.21720    0.21720   1.00
O2       0.72650    0.27350    0.33820   1.00
O2       0.72650    0.33820    0.27350   1.00
O2       0.66180    0.27350    0.27350   1.00
O2       0.77350    0.22650    0.33820   1.00
O2       0.83820    0.22650    0.27350   1.00
O2       0.77350    0.16180    0.27350   1.00
O2       0.77350    0.33820    0.22650   1.00
O2       0.83820    0.27350    0.22650   1.00
O2       0.77350    0.27350    0.16180   1.00
O2       0.66180    0.22650    0.22650   1.00
O2       0.72650    0.16180    0.22650   1.00
O2       0.72650    0.22650    0.16180   1.00
C1       0.75000    0.25000    0.35520   1.00
C1       0.75000    0.35520    0.25000   1.00
C1       0.64480    0.25000    0.25000   1.00
C1       0.85520    0.25000    0.25000   1.00
C1       0.75000    0.14480    0.25000   1.00
C1       0.75000    0.25000    0.14480   1.00
O1       0.25000    0.25000    0.25000   1.00
Zn1      0.28280    0.21720    0.21720   1.00
Zn1      0.21720    0.28280    0.21720   1.00
Zn1      0.21720    0.21720    0.28280   1.00
Zn1      0.28280    0.28280    0.28280   1.00
O2       0.27350    0.22650    0.16180   1.00
O2       0.27350    0.16180    0.22650   1.00
O2       0.33820    0.22650    0.22650   1.00
O2       0.22650    0.27350    0.16180   1.00
O2       0.16180    0.27350    0.22650   1.00
O2       0.22650    0.33820    0.22650   1.00
O2       0.22650    0.16180    0.27350   1.00
O2       0.16180    0.22650    0.27350   1.00
O2       0.22650    0.22650    0.33820   1.00
O2       0.33820    0.27350    0.27350   1.00
O2       0.27350    0.33820    0.27350   1.00
O2       0.27350    0.27350    0.33820   1.00
C1       0.25000    0.25000    0.14480   1.00
C1       0.25000    0.14480    0.25000   1.00
C1       0.35520    0.25000    0.25000   1.00
C1       0.14480    0.25000    0.25000   1.00
C1       0.25000    0.35520    0.25000   1.00
C1       0.25000    0.25000    0.35520   1.00
O1       0.75000    0.75000    0.25000   1.00
Zn1      0.78280    0.71720    0.21720   1.00
Zn1      0.71720    0.78280    0.21720   1.00
Zn1      0.71720    0.71720    0.28280   1.00
Zn1      0.78280    0.78280    0.28280   1.00
O2       0.77350    0.72650    0.16180   1.00
O2       0.77350    0.66180    0.22650   1.00
O2       0.83820    0.72650    0.22650   1.00
O2       0.72650    0.77350    0.16180   1.00
O2       0.66180    0.77350    0.22650   1.00
O2       0.72650    0.83820    0.22650   1.00
O2       0.72650    0.66180    0.27350   1.00
O2       0.66180    0.72650    0.27350   1.00
O2       0.72650    0.72650    0.33820   1.00
O2       0.83820    0.77350    0.27350   1.00
O2       0.77350    0.83820    0.27350   1.00
O2       0.77350    0.77350    0.33820   1.00
C1       0.75000    0.75000    0.14480   1.00
C1       0.75000    0.64480    0.25000   1.00
C1       0.85520    0.75000    0.25000   1.00
C1       0.64480    0.75000    0.25000   1.00
C1       0.75000    0.85520    0.25000   1.00
C1       0.75000    0.75000    0.35520   1.00
O1       0.75000    0.25000    0.75000   1.00
Zn1      0.78280    0.21720    0.71720   1.00
Zn1      0.71720    0.28280    0.71720   1.00
Zn1      0.71720    0.21720    0.78280   1.00
Zn1      0.78280    0.28280    0.78280   1.00
O2       0.77350    0.22650    0.66180   1.00
O2       0.77350    0.16180    0.72650   1.00
O2       0.83820    0.22650    0.72650   1.00
O2       0.72650    0.27350    0.66180   1.00
O2       0.66180    0.27350    0.72650   1.00
O2       0.72650    0.33820    0.72650   1.00
O2       0.72650    0.16180    0.77350   1.00
O2       0.66180    0.22650    0.77350   1.00
O2       0.72650    0.22650    0.83820   1.00
O2       0.83820    0.27350    0.77350   1.00
O2       0.77350    0.33820    0.77350   1.00
O2       0.77350    0.27350    0.83820   1.00
C1       0.75000    0.25000    0.64480   1.00
C1       0.75000    0.14480    0.75000   1.00
C1       0.85520    0.25000    0.75000   1.00
C1       0.64480    0.25000    0.75000   1.00
C1       0.75000    0.35520    0.75000   1.00
C1       0.75000    0.25000    0.85520   1.00
O1       0.25000    0.75000    0.75000   1.00
Zn1      0.28280    0.71720    0.71720   1.00
Zn1      0.21720    0.78280    0.71720   1.00
Zn1      0.21720    0.71720    0.78280   1.00
Zn1      0.28280    0.78280    0.78280   1.00
O2       0.27350    0.72650    0.66180   1.00
O2       0.27350    0.66180    0.72650   1.00
O2       0.33820    0.72650    0.72650   1.00
O2       0.22650    0.77350    0.66180   1.00
O2       0.16180    0.77350    0.72650   1.00
O2       0.22650    0.83820    0.72650   1.00
O2       0.22650    0.66180    0.77350   1.00
O2       0.16180    0.72650    0.77350   1.00
O2       0.22650    0.72650    0.83820   1.00
O2       0.33820    0.77350    0.77350   1.00
O2       0.27350    0.83820    0.77350   1.00
O2       0.27350    0.77350    0.83820   1.00
C1       0.25000    0.75000    0.64480   1.00
C1       0.25000    0.64480    0.75000   1.00
C1       0.35520    0.75000    0.75000   1.00
C1       0.14480    0.75000    0.75000   1.00
C1       0.25000    0.85520    0.75000   1.00
C1       0.25000    0.75000    0.85520   1.00
O1       0.91500    0.91500    0.91500   1.00
Zn1      0.88220    0.94780    0.94780   1.00
Zn1      0.94780    0.88220    0.94780   1.00
Zn1      0.94780    0.94780    0.88220   1.00
Zn1      0.88220    0.88220    0.88220   1.00
O2       0.89150    0.93850    1.00320   1.00
O2       0.89150    1.00320    0.93850   1.00
O2       0.82680    0.93850    0.93850   1.00
O2       0.93850    0.89150    1.00320   1.00
O2       1.00320    0.89150    0.93850   1.00
O2       0.93850    0.82680    0.93850   1.00
O2       0.93850    1.00320    0.89150   1.00
O2       1.00320    0.93850    0.89150   1.00
O2       0.93850    0.93850    0.82680   1.00
O2       0.82680    0.89150    0.89150   1.00
O2       0.89150    0.82680    0.89150   1.00
O2       0.89150    0.89150    0.82680   1.00
C1       0.91500    0.91500    1.02020   1.00
C1       0.91500    1.02020    0.91500   1.00
C1       0.80980    0.91500    0.91500   1.00
C1       1.02020    0.91500    0.91500   1.00
C1       0.91500    0.80980    0.91500   1.00
C1       0.91500    0.91500    0.80980   1.00
O1       0.41500    0.41500    0.91500   1.00
Zn1      0.38220    0.44780    0.94780   1.00
Zn1      0.44780    0.38220    0.94780   1.00
Zn1      0.44780    0.44780    0.88220   1.00
Zn1      0.38220    0.38220    0.88220   1.00
O2       0.39150    0.43850    1.00320   1.00
O2       0.39150    0.50320    0.93850   1.00
O2       0.32680    0.43850    0.93850   1.00
O2       0.43850    0.39150    1.00320   1.00
O2       0.50320    0.39150    0.93850   1.00
O2       0.43850    0.32680    0.93850   1.00
O2       0.43850    0.50320    0.89150   1.00
O2       0.50320    0.43850    0.89150   1.00
O2       0.43850    0.43850    0.82680   1.00
O2       0.32680    0.39150    0.89150   1.00
O2       0.39150    0.32680    0.89150   1.00
O2       0.39150    0.39150    0.82680   1.00
C1       0.41500    0.41500    1.02020   1.00
C1       0.41500    0.52020    0.91500   1.00
C1       0.30980    0.41500    0.91500   1.00
C1       0.52020    0.41500    0.91500   1.00
C1       0.41500    0.30980    0.91500   1.00
C1       0.41500    0.41500    0.80980   1.00
O1       0.41500    0.91500    0.41500   1.00
Zn1      0.38220    0.94780    0.44780   1.00
Zn1      0.44780    0.88220    0.44780   1.00
Zn1      0.44780    0.94780    0.38220   1.00
Zn1      0.38220    0.88220    0.38220   1.00
O2       0.39150    0.93850    0.50320   1.00
O2       0.39150    1.00320    0.43850   1.00
O2       0.32680    0.93850    0.43850   1.00
O2       0.43850    0.89150    0.50320   1.00
O2       0.50320    0.89150    0.43850   1.00
O2       0.43850    0.82680    0.43850   1.00
O2       0.43850    1.00320    0.39150   1.00
O2       0.50320    0.93850    0.39150   1.00
O2       0.43850    0.93850    0.32680   1.00
O2       0.32680    0.89150    0.39150   1.00
O2       0.39150    0.82680    0.39150   1.00
O2       0.39150    0.89150    0.32680   1.00
C1       0.41500    0.91500    0.52020   1.00
C1       0.41500    1.02020    0.41500   1.00
C1       0.30980    0.91500    0.41500   1.00
C1       0.52020    0.91500    0.41500   1.00
C1       0.41500    0.80980    0.41500   1.00
C1       0.41500    0.91500    0.30980   1.00
O1       0.91500    0.41500    0.41500   1.00
Zn1      0.88220    0.44780    0.44780   1.00
Zn1      0.94780    0.38220    0.44780   1.00
Zn1      0.94780    0.44780    0.38220   1.00
Zn1      0.88220    0.38220    0.38220   1.00
O2       0.89150    0.43850    0.50320   1.00
O2       0.89150    0.50320    0.43850   1.00
O2       0.82680    0.43850    0.43850   1.00
O2       0.93850    0.39150    0.50320   1.00
O2       1.00320    0.39150    0.43850   1.00
O2       0.93850    0.32680    0.43850   1.00
O2       0.93850    0.50320    0.39150   1.00
O2       1.00320    0.43850    0.39150   1.00
O2       0.93850    0.43850    0.32680   1.00
O2       0.82680    0.39150    0.39150   1.00
O2       0.89150    0.32680    0.39150   1.00
O2       0.89150    0.39150    0.32680   1.00
C1       0.91500    0.41500    0.52020   1.00
C1       0.91500    0.52020    0.41500   1.00
C1       0.80980    0.41500    0.41500   1.00
C1       1.02020    0.41500    0.41500   1.00
C1       0.91500    0.30980    0.41500   1.00
C1       0.91500    0.41500    0.30980   1.00
O1       0.41500    0.41500    0.41500   1.00
Zn1      0.44780    0.38220    0.38220   1.00
Zn1      0.38220    0.44780    0.38220   1.00
Zn1      0.38220    0.38220    0.44780   1.00
Zn1      0.44780    0.44780    0.44780   1.00
O2       0.43850    0.39150    0.32680   1.00
O2       0.43850    0.32680    0.39150   1.00
O2       0.50320    0.39150    0.39150   1.00
O2       0.39150    0.43850    0.32680   1.00
O2       0.32680    0.43850    0.39150   1.00
O2       0.39150    0.50320    0.39150   1.00
O2       0.39150    0.32680    0.43850   1.00
O2       0.32680    0.39150    0.43850   1.00
O2       0.39150    0.39150    0.50320   1.00
O2       0.50320    0.43850    0.43850   1.00
O2       0.43850    0.50320    0.43850   1.00
O2       0.43850    0.43850    0.50320   1.00
C1       0.41500    0.41500    0.30980   1.00
C1       0.41500    0.30980    0.41500   1.00
C1       0.52020    0.41500    0.41500   1.00
C1       0.30980    0.41500    0.41500   1.00
C1       0.41500    0.52020    0.41500   1.00
C1       0.41500    0.41500    0.52020   1.00
O1       0.91500    0.91500    0.41500   1.00
Zn1      0.94780    0.88220    0.38220   1.00
Zn1      0.88220    0.94780    0.38220   1.00
Zn1      0.88220    0.88220    0.44780   1.00
Zn1      0.94780    0.94780    0.44780   1.00
O2       0.93850    0.89150    0.32680   1.00
O2       0.93850    0.82680    0.39150   1.00
O2       1.00320    0.89150    0.39150   1.00
O2       0.89150    0.93850    0.32680   1.00
O2       0.82680    0.93850    0.39150   1.00
O2       0.89150    1.00320    0.39150   1.00
O2       0.89150    0.82680    0.43850   1.00
O2       0.82680    0.89150    0.43850   1.00
O2       0.89150    0.89150    0.50320   1.00
O2       1.00320    0.93850    0.43850   1.00
O2       0.93850    1.00320    0.43850   1.00
O2       0.93850    0.93850    0.50320   1.00
C1       0.91500    0.91500    0.30980   1.00
C1       0.91500    0.80980    0.41500   1.00
C1       1.02020    0.91500    0.41500   1.00
C1       0.80980    0.91500    0.41500   1.00
C1       0.91500    1.02020    0.41500   1.00
C1       0.91500    0.91500    0.52020   1.00
O1       0.91500    0.41500    0.91500   1.00
Zn1      0.94780    0.38220    0.88220   1.00
Zn1      0.88220    0.44780    0.88220   1.00
Zn1      0.88220    0.38220    0.94780   1.00
Zn1      0.94780    0.44780    0.94780   1.00
O2       0.93850    0.39150    0.82680   1.00
O2       0.93850    0.32680    0.89150   1.00
O2       1.00320    0.39150    0.89150   1.00
O2       0.89150    0.43850    0.82680   1.00
O2       0.82680    0.43850    0.89150   1.00
O2       0.89150    0.50320    0.89150   1.00
O2       0.89150    0.32680    0.93850   1.00
O2       0.82680    0.39150    0.93850   1.00
O2       0.89150    0.39150    1.00320   1.00
O2       1.00320    0.43850    0.93850   1.00
O2       0.93850    0.50320    0.93850   1.00
O2       0.93850    0.43850    1.00320   1.00
C1       0.91500    0.41500    0.80980   1.00
C1       0.91500    0.30980    0.91500   1.00
C1       1.02020    0.41500    0.91500   1.00
C1       0.80980    0.41500    0.91500   1.00
C1       0.91500    0.52020    0.91500   1.00
C1       0.91500    0.41500    1.02020   1.00
O1       0.41500    0.91500    0.91500   1.00
Zn1      0.44780    0.88220    0.88220   1.00
Zn1      0.38220    0.94780    0.88220   1.00
Zn1      0.38220    0.88220    0.94780   1.00
Zn1      0.44780    0.94780    0.94780   1.00
O2       0.43850    0.89150    0.82680   1.00
O2       0.43850    0.82680    0.89150   1.00
O2       0.50320    0.89150    0.89150   1.00
O2       0.39150    0.93850    0.82680   1.00
O2       0.32680    0.93850    0.89150   1.00
O2       0.39150    1.00320    0.89150   1.00
O2       0.39150    0.82680    0.93850   1.00
O2       0.32680    0.89150    0.93850   1.00
O2       0.39150    0.89150    1.00320   1.00
O2       0.50320    0.93850    0.93850   1.00
O2       0.43850    1.00320    0.93850   1.00
O2       0.43850    0.93850    1.00320   1.00
C1       0.41500    0.91500    0.80980   1.00
C1       0.41500    0.80980    0.91500   1.00
C1       0.52020    0.91500    0.91500   1.00
C1       0.30980    0.91500    0.91500   1.00
C1       0.41500    1.02020    0.91500   1.00
C1       0.41500    0.91500    1.02020   1.00
C4       0.75073    0.75027    0.97917   1.00
C4       0.74927    0.74973    1.02083   1.00
C3       0.78580    0.74330    0.95846   1.00
C3       0.77033    0.72217    1.04321   1.00
C3       0.71684    0.75689    0.95643   1.00
C3       0.72726    0.77764    1.04187   1.00
C2       0.75302    0.74953    0.89487   1.00
C2       0.74727    0.75034    1.10514   1.00
C3       0.78685    0.74301    0.91715   1.00
C3       0.76925    0.72249    1.08449   1.00
C3       0.71805    0.75652    0.91514   1.00
C3a      0.72609    0.77807    1.08328   1.00
H1       0.81271    0.73841    0.97425   1.00
H1       0.78741    0.69986    1.02875   1.00
H1       0.81426    0.73765    0.90240   1.00
H1       0.78564    0.70077    1.10056   1.00
H1       0.69147    0.76149    0.89882   1.00
C5       0.70225    0.80873    1.10380   1.00
H1       0.71086    0.79961    1.02622   1.00
H1       0.68899    0.76160    0.97059   1.00
H2       0.70360    0.80493    1.13599   1.00
H2       0.71484    0.83785    1.09705   1.00
N1       0.66149    0.80692    1.09125   1.00
C6       0.63703    0.77661    1.09644   1.00
C6       0.64144    0.83528    1.07288   1.00
C6       0.60096    0.78558    1.08102   1.00
C6       0.60376    0.82290    1.06604   1.00
H3       0.64491    0.74941    1.11049   1.00
H3       0.65335    0.86341    1.06484   1.00
H3       0.57546    0.76701    1.08076   1.00
H3       0.58087    0.83927    1.05180   1.00
C4       0.75027    0.97917    0.75073   1.00
C4       0.74973    1.02083    0.74927   1.00
C3       0.74330    0.95846    0.78580   1.00
C3       0.72217    1.04321    0.77033   1.00
C3       0.75689    0.95643    0.71684   1.00
C3       0.77764    1.04187    0.72726   1.00
C2       0.74953    0.89487    0.75302   1.00
C2       0.75034    1.10514    0.74727   1.00
C3       0.74301    0.91715    0.78685   1.00
C3       0.72249    1.08449    0.76925   1.00
C3       0.75652    0.91514    0.71805   1.00
C3a      0.77807    1.08328    0.72609   1.00
H1       0.73841    0.97425    0.81271   1.00
H1       0.69986    1.02875    0.78741   1.00
H1       0.73765    0.90240    0.81426   1.00
H1       0.70077    1.10056    0.78564   1.00
H1       0.76149    0.89882    0.69147   1.00
C5       0.80873    1.10380    0.70225   1.00
H1       0.79961    1.02622    0.71086   1.00
H1       0.76160    0.97059    0.68899   1.00
H2       0.80493    1.13599    0.70360   1.00
H2       0.83785    1.09705    0.71484   1.00
N1       0.80692    1.09125    0.66149   1.00
C6       0.77661    1.09644    0.63703   1.00
C6       0.83528    1.07288    0.64144   1.00
C6       0.78558    1.08102    0.60096   1.00
C6       0.82290    1.06604    0.60376   1.00
H3       0.74941    1.11049    0.64491   1.00
H3       0.86341    1.06484    0.65335   1.00
H3       0.76701    1.08076    0.57546   1.00
H3       0.83927    1.05180    0.58087   1.00
C4       0.52083    0.75073    0.74973   1.00
C4       0.47917    0.74927    0.75027   1.00
C3       0.54154    0.78580    0.75670   1.00
C3       0.45679    0.77033    0.77783   1.00
C3       0.54357    0.71684    0.74311   1.00
C3       0.45813    0.72726    0.72236   1.00
C2       0.60513    0.75302    0.75047   1.00
C2       0.39486    0.74727    0.74966   1.00
C3       0.58285    0.78685    0.75699   1.00
C3       0.41551    0.76925    0.77751   1.00
C3       0.58486    0.71805    0.74348   1.00
C3a      0.41672    0.72609    0.72193   1.00
H1       0.52575    0.81271    0.76159   1.00
H1       0.47125    0.78741    0.80014   1.00
H1       0.59760    0.81426    0.76235   1.00
H1       0.39944    0.78564    0.79923   1.00
H1       0.60118    0.69147    0.73851   1.00
C5       0.39620    0.70225    0.69127   1.00
H1       0.47378    0.71086    0.70039   1.00
H1       0.52941    0.68899    0.73840   1.00
H2       0.36401    0.70360    0.69507   1.00
H2       0.40295    0.71484    0.66215   1.00
N1       0.40875    0.66149    0.69308   1.00
C6       0.40356    0.63703    0.72339   1.00
C6       0.42712    0.64144    0.66472   1.00
C6       0.41898    0.60096    0.71442   1.00
C6       0.43396    0.60376    0.67710   1.00
H3       0.38951    0.64491    0.75059   1.00
H3       0.43516    0.65335    0.63659   1.00
H3       0.41924    0.57546    0.73299   1.00
H3       0.44820    0.58087    0.66073   1.00
C4       0.97917    0.75073    0.75027   1.00
C4       1.02083    0.74927    0.74973   1.00
C3       0.95846    0.78580    0.74330   1.00
C3       1.04321    0.77033    0.72217   1.00
C3       0.95643    0.71684    0.75689   1.00
C3       1.04187    0.72726    0.77764   1.00
C2       0.89487    0.75302    0.74953   1.00
C2       1.10514    0.74727    0.75034   1.00
C3       0.91715    0.78685    0.74301   1.00
C3       1.08449    0.76925    0.72249   1.00
C3       0.91514    0.71805    0.75652   1.00
C3a      1.08328    0.72609    0.77807   1.00
H1       0.97425    0.81271    0.73841   1.00
H1       1.02875    0.78741    0.69986   1.00
H1       0.90240    0.81426    0.73765   1.00
H1       1.10056    0.78564    0.70077   1.00
H1       0.89882    0.69147    0.76149   1.00
C5       1.10380    0.70225    0.80873   1.00
H1       1.02622    0.71086    0.79961   1.00
H1       0.97059    0.68899    0.76160   1.00
H2       1.13599    0.70360    0.80493   1.00
H2       1.09705    0.71484    0.83785   1.00
N1       1.09125    0.66149    0.80692   1.00
C6       1.09644    0.63703    0.77661   1.00
C6       1.07288    0.64144    0.83528   1.00
C6       1.08102    0.60096    0.78558   1.00
C6       1.06604    0.60376    0.82290   1.00
H3       1.11049    0.64491    0.74941   1.00
H3       1.06484    0.65335    0.86341   1.00
H3       1.08076    0.57546    0.76701   1.00
H3       1.05180    0.58087    0.83927   1.00
C4       0.74973    0.52083    0.75073   1.00
C4       0.75027    0.47917    0.74927   1.00
C3       0.75670    0.54154    0.78580   1.00
C3       0.77783    0.45679    0.77033   1.00
C3       0.74311    0.54357    0.71684   1.00
C3       0.72236    0.45813    0.72726   1.00
C2       0.75047    0.60513    0.75302   1.00
C2       0.74966    0.39486    0.74727   1.00
C3       0.75699    0.58285    0.78685   1.00
C3       0.77751    0.41551    0.76925   1.00
C3       0.74348    0.58486    0.71805   1.00
C3a      0.72193    0.41672    0.72609   1.00
H1       0.76159    0.52575    0.81271   1.00
H1       0.80014    0.47125    0.78741   1.00
H1       0.76235    0.59760    0.81426   1.00
H1       0.79923    0.39944    0.78564   1.00
H1       0.73851    0.60118    0.69147   1.00
C5       0.69127    0.39620    0.70225   1.00
H1       0.70039    0.47378    0.71086   1.00
H1       0.73840    0.52941    0.68899   1.00
H2       0.69507    0.36401    0.70360   1.00
H2       0.66215    0.40295    0.71484   1.00
N1       0.69308    0.40875    0.66149   1.00
C6       0.72339    0.40356    0.63703   1.00
C6       0.66472    0.42712    0.64144   1.00
C6       0.71442    0.41898    0.60096   1.00
C6       0.67710    0.43396    0.60376   1.00
H3       0.75059    0.38951    0.64491   1.00
H3       0.63659    0.43516    0.65335   1.00
H3       0.73299    0.41924    0.57546   1.00
H3       0.66073    0.44820    0.58087   1.00
C4       0.75073    0.74973    0.52083   1.00
C4       0.74927    0.75027    0.47917   1.00
C3       0.78580    0.75670    0.54154   1.00
C3       0.77033    0.77783    0.45679   1.00
C3       0.71684    0.74311    0.54357   1.00
C3       0.72726    0.72236    0.45813   1.00
C2       0.75302    0.75047    0.60513   1.00
C2       0.74727    0.74966    0.39486   1.00
C3       0.78685    0.75699    0.58285   1.00
C3       0.76925    0.77751    0.41551   1.00
C3       0.71805    0.74348    0.58486   1.00
C3a      0.72609    0.72193    0.41672   1.00
H1       0.81271    0.76159    0.52575   1.00
H1       0.78741    0.80014    0.47125   1.00
H1       0.81426    0.76235    0.59760   1.00
H1       0.78564    0.79923    0.39944   1.00
H1       0.69147    0.73851    0.60118   1.00
C5       0.70225    0.69127    0.39620   1.00
H1       0.71086    0.70039    0.47378   1.00
H1       0.68899    0.73840    0.52941   1.00
H2       0.70360    0.69507    0.36401   1.00
H2       0.71484    0.66215    0.40295   1.00
N1       0.66149    0.69308    0.40875   1.00
C6       0.63703    0.72339    0.40356   1.00
C6       0.64144    0.66472    0.42712   1.00
C6       0.60096    0.71442    0.41898   1.00
C6       0.60376    0.67710    0.43396   1.00
H3       0.64491    0.75059    0.38951   1.00
H3       0.65335    0.63659    0.43516   1.00
H3       0.57546    0.73299    0.41924   1.00
H3       0.58087    0.66073    0.44820   1.00
C4       0.25073    0.25027    0.97917   1.00
C4       0.24927    0.24973    1.02083   1.00
C3       0.28580    0.24330    0.95846   1.00
C3       0.27033    0.22217    1.04321   1.00
C3       0.21684    0.25689    0.95643   1.00
C3       0.22726    0.27764    1.04187   1.00
C2       0.25302    0.24953    0.89487   1.00
C2       0.24727    0.25034    1.10514   1.00
C3       0.28685    0.24301    0.91715   1.00
C3       0.26925    0.22249    1.08449   1.00
C3       0.21805    0.25652    0.91514   1.00
C3a      0.22609    0.27807    1.08328   1.00
H1       0.31271    0.23841    0.97425   1.00
H1       0.28741    0.19986    1.02875   1.00
H1       0.31426    0.23765    0.90240   1.00
H1       0.28564    0.20077    1.10056   1.00
H1       0.19147    0.26149    0.89882   1.00
C5       0.20225    0.30873    1.10380   1.00
H1       0.21086    0.29961    1.02622   1.00
H1       0.18899    0.26160    0.97059   1.00
H2       0.20360    0.30493    1.13599   1.00
H2       0.21484    0.33785    1.09705   1.00
N1       0.16149    0.30692    1.09125   1.00
C6       0.13703    0.27661    1.09644   1.00
C6       0.14144    0.33528    1.07288   1.00
C6       0.10096    0.28558    1.08102   1.00
C6       0.10376    0.32290    1.06604   1.00
H3       0.14491    0.24941    1.11049   1.00
H3       0.15335    0.36341    1.06484   1.00
H3       0.07546    0.26701    1.08076   1.00
H3       0.08087    0.33927    1.05180   1.00
C4       0.25027    0.47917    0.75073   1.00
C4       0.24973    0.52083    0.74927   1.00
C3       0.24330    0.45846    0.78580   1.00
C3       0.22217    0.54321    0.77033   1.00
C3       0.25689    0.45643    0.71684   1.00
C3       0.27764    0.54187    0.72726   1.00
C2       0.24953    0.39487    0.75302   1.00
C2       0.25034    0.60514    0.74727   1.00
C3       0.24301    0.41715    0.78685   1.00
C3       0.22249    0.58449    0.76925   1.00
C3       0.25652    0.41514    0.71805   1.00
C3a      0.27807    0.58328    0.72609   1.00
H1       0.23841    0.47425    0.81271   1.00
H1       0.19986    0.52875    0.78741   1.00
H1       0.23765    0.40240    0.81426   1.00
H1       0.20077    0.60056    0.78564   1.00
H1       0.26149    0.39882    0.69147   1.00
C5       0.30873    0.60380    0.70225   1.00
H1       0.29961    0.52622    0.71086   1.00
H1       0.26160    0.47059    0.68899   1.00
H2       0.30493    0.63599    0.70360   1.00
H2       0.33785    0.59705    0.71484   1.00
N1       0.30692    0.59125    0.66149   1.00
C6       0.27661    0.59644    0.63703   1.00
C6       0.33528    0.57288    0.64144   1.00
C6       0.28558    0.58102    0.60096   1.00
C6       0.32290    0.56604    0.60376   1.00
H3       0.24941    0.61049    0.64491   1.00
H3       0.36341    0.56484    0.65335   1.00
H3       0.26701    0.58076    0.57546   1.00
H3       0.33927    0.55180    0.58087   1.00
C4       0.02083    0.25073    0.74973   1.00
C4       -0.02083   0.24927    0.75027   1.00
C3       0.04154    0.28580    0.75670   1.00
C3       -0.04321   0.27033    0.77783   1.00
C3       0.04357    0.21684    0.74311   1.00
C3       -0.04187   0.22726    0.72236   1.00
C2       0.10513    0.25302    0.75047   1.00
C2       -0.10514   0.24727    0.74966   1.00
C3       0.08285    0.28685    0.75699   1.00
C3       -0.08449   0.26925    0.77751   1.00
C3       0.08486    0.21805    0.74348   1.00
C3a      -0.08328   0.22609    0.72193   1.00
H1       0.02575    0.31271    0.76159   1.00
H1       -0.02875   0.28741    0.80014   1.00
H1       0.09760    0.31426    0.76235   1.00
H1       -0.10056   0.28564    0.79923   1.00
H1       0.10118    0.19147    0.73851   1.00
C5       -0.10380   0.20225    0.69127   1.00
H1       -0.02622   0.21086    0.70039   1.00
H1       0.02941    0.18899    0.73840   1.00
H2       -0.13599   0.20360    0.69507   1.00
H2       -0.09705   0.21484    0.66215   1.00
N1       -0.09125   0.16149    0.69308   1.00
C6       -0.09644   0.13703    0.72339   1.00
C6       -0.07288   0.14144    0.66472   1.00
C6       -0.08102   0.10096    0.71442   1.00
C6       -0.06604   0.10376    0.67710   1.00
H3       -0.11049   0.14491    0.75059   1.00
H3       -0.06484   0.15335    0.63659   1.00
H3       -0.08076   0.07546    0.73299   1.00
H3       -0.05180   0.08087    0.66073   1.00
C4       0.47917    0.25073    0.75027   1.00
C4       0.52083    0.24927    0.74973   1.00
C3       0.45846    0.28580    0.74330   1.00
C3       0.54321    0.27033    0.72217   1.00
C3       0.45643    0.21684    0.75689   1.00
C3       0.54187    0.22726    0.77764   1.00
C2       0.39487    0.25302    0.74953   1.00
C2       0.60514    0.24727    0.75034   1.00
C3       0.41715    0.28685    0.74301   1.00
C3       0.58449    0.26925    0.72249   1.00
C3       0.41514    0.21805    0.75652   1.00
C3a      0.58328    0.22609    0.77807   1.00
H1       0.47425    0.31271    0.73841   1.00
H1       0.52875    0.28741    0.69986   1.00
H1       0.40240    0.31426    0.73765   1.00
H1       0.60056    0.28564    0.70077   1.00
H1       0.39882    0.19147    0.76149   1.00
C5       0.60380    0.20225    0.80873   1.00
H1       0.52622    0.21086    0.79961   1.00
H1       0.47059    0.18899    0.76160   1.00
H2       0.63599    0.20360    0.80493   1.00
H2       0.59705    0.21484    0.83785   1.00
N1       0.59125    0.16149    0.80692   1.00
C6       0.59644    0.13703    0.77661   1.00
C6       0.57288    0.14144    0.83528   1.00
C6       0.58102    0.10096    0.78558   1.00
C6       0.56604    0.10376    0.82290   1.00
H3       0.61049    0.14491    0.74941   1.00
H3       0.56484    0.15335    0.86341   1.00
H3       0.58076    0.07546    0.76701   1.00
H3       0.55180    0.08087    0.83927   1.00
C4       0.24973    0.02083    0.75073   1.00
C4       0.25027    -0.02083   0.74927   1.00
C3       0.25670    0.04154    0.78580   1.00
C3       0.27783    -0.04321   0.77033   1.00
C3       0.24311    0.04357    0.71684   1.00
C3       0.22236    -0.04187   0.72726   1.00
C2       0.25047    0.10513    0.75302   1.00
C2       0.24966    -0.10514   0.74727   1.00
C3       0.25699    0.08285    0.78685   1.00
C3       0.27751    -0.08449   0.76925   1.00
C3       0.24348    0.08486    0.71805   1.00
C3a      0.22193    -0.08328   0.72609   1.00
H1       0.26159    0.02575    0.81271   1.00
H1       0.30014    -0.02875   0.78741   1.00
H1       0.26235    0.09760    0.81426   1.00
H1       0.29923    -0.10056   0.78564   1.00
H1       0.23851    0.10118    0.69147   1.00
C5       0.19127    -0.10380   0.70225   1.00
H1       0.20039    -0.02622   0.71086   1.00
H1       0.23840    0.02941    0.68899   1.00
H2       0.19507    -0.13599   0.70360   1.00
H2       0.16215    -0.09705   0.71484   1.00
N1       0.19308    -0.09125   0.66149   1.00
C6       0.22339    -0.09644   0.63703   1.00
C6       0.16472    -0.07288   0.64144   1.00
C6       0.21442    -0.08102   0.60096   1.00
C6       0.17710    -0.06604   0.60376   1.00
H3       0.25059    -0.11049   0.64491   1.00
H3       0.13659    -0.06484   0.65335   1.00
H3       0.23299    -0.08076   0.57546   1.00
H3       0.16073    -0.05180   0.58087   1.00
C4       0.25073    0.24973    0.52083   1.00
C4       0.24927    0.25027    0.47917   1.00
C3       0.28580    0.25670    0.54154   1.00
C3       0.27033    0.27783    0.45679   1.00
C3       0.21684    0.24311    0.54357   1.00
C3       0.22726    0.22236    0.45813   1.00
C2       0.25302    0.25047    0.60513   1.00
C2       0.24727    0.24966    0.39486   1.00
C3       0.28685    0.25699    0.58285   1.00
C3       0.26925    0.27751    0.41551   1.00
C3       0.21805    0.24348    0.58486   1.00
C3a      0.22609    0.22193    0.41672   1.00
H1       0.31271    0.26159    0.52575   1.00
H1       0.28741    0.30014    0.47125   1.00
H1       0.31426    0.26235    0.59760   1.00
H1       0.28564    0.29923    0.39944   1.00
H1       0.19147    0.23851    0.60118   1.00
C5       0.20225    0.19127    0.39620   1.00
H1       0.21086    0.20039    0.47378   1.00
H1       0.18899    0.23840    0.52941   1.00
H2       0.20360    0.19507    0.36401   1.00
H2       0.21484    0.16215    0.40295   1.00
N1       0.16149    0.19308    0.40875   1.00
C6       0.13703    0.22339    0.40356   1.00
C6       0.14144    0.16472    0.42712   1.00
C6       0.10096    0.21442    0.41898   1.00
C6       0.10376    0.17710    0.43396   1.00
H3       0.14491    0.25059    0.38951   1.00
H3       0.15335    0.13659    0.43516   1.00
H3       0.07546    0.23299    0.41924   1.00
H3       0.08087    0.16073    0.44820   1.00
C4       0.25073    0.75027    0.47917   1.00
C4       0.24927    0.74973    0.52083   1.00
C3       0.28580    0.74330    0.45846   1.00
C3       0.27033    0.72217    0.54321   1.00
C3       0.21684    0.75689    0.45643   1.00
C3       0.22726    0.77764    0.54187   1.00
C2       0.25302    0.74953    0.39487   1.00
C2       0.24727    0.75034    0.60514   1.00
C3       0.28685    0.74301    0.41715   1.00
C3       0.26925    0.72249    0.58449   1.00
C3       0.21805    0.75652    0.41514   1.00
C3a      0.22609    0.77807    0.58328   1.00
H1       0.31271    0.73841    0.47425   1.00
H1       0.28741    0.69986    0.52875   1.00
H1       0.31426    0.73765    0.40240   1.00
H1       0.28564    0.70077    0.60056   1.00
H1       0.19147    0.76149    0.39882   1.00
C5       0.20225    0.80873    0.60380   1.00
H1       0.21086    0.79961    0.52622   1.00
H1       0.18899    0.76160    0.47059   1.00
H2       0.20360    0.80493    0.63599   1.00
H2       0.21484    0.83785    0.59705   1.00
N1       0.16149    0.80692    0.59125   1.00
C6       0.13703    0.77661    0.59644   1.00
C6       0.14144    0.83528    0.57288   1.00
C6       0.10096    0.78558    0.58102   1.00
C6       0.10376    0.82290    0.56604   1.00
H3       0.14491    0.74941    0.61049   1.00
H3       0.15335    0.86341    0.56484   1.00
H3       0.07546    0.76701    0.58076   1.00
H3       0.08087    0.83927    0.55180   1.00
C4       0.25027    0.97917    0.25073   1.00
C4       0.24973    1.02083    0.24927   1.00
C3       0.24330    0.95846    0.28580   1.00
C3       0.22217    1.04321    0.27033   1.00
C3       0.25689    0.95643    0.21684   1.00
C3       0.27764    1.04187    0.22726   1.00
C2       0.24953    0.89487    0.25302   1.00
C2       0.25034    1.10514    0.24727   1.00
C3       0.24301    0.91715    0.28685   1.00
C3       0.22249    1.08449    0.26925   1.00
C3       0.25652    0.91514    0.21805   1.00
C3a      0.27807    1.08328    0.22609   1.00
H1       0.23841    0.97425    0.31271   1.00
H1       0.19986    1.02875    0.28741   1.00
H1       0.23765    0.90240    0.31426   1.00
H1       0.20077    1.10056    0.28564   1.00
H1       0.26149    0.89882    0.19147   1.00
C5       0.30873    1.10380    0.20225   1.00
H1       0.29961    1.02622    0.21086   1.00
H1       0.26160    0.97059    0.18899   1.00
H2       0.30493    1.13599    0.20360   1.00
H2       0.33785    1.09705    0.21484   1.00
N1       0.30692    1.09125    0.16149   1.00
C6       0.27661    1.09644    0.13703   1.00
C6       0.33528    1.07288    0.14144   1.00
C6       0.28558    1.08102    0.10096   1.00
C6       0.32290    1.06604    0.10376   1.00
H3       0.24941    1.11049    0.14491   1.00
H3       0.36341    1.06484    0.15335   1.00
H3       0.26701    1.08076    0.07546   1.00
H3       0.33927    1.05180    0.08087   1.00
C4       0.02083    0.75073    0.24973   1.00
C4       -0.02083   0.74927    0.25027   1.00
C3       0.04154    0.78580    0.25670   1.00
C3       -0.04321   0.77033    0.27783   1.00
C3       0.04357    0.71684    0.24311   1.00
C3       -0.04187   0.72726    0.22236   1.00
C2       0.10513    0.75302    0.25047   1.00
C2       -0.10514   0.74727    0.24966   1.00
C3       0.08285    0.78685    0.25699   1.00
C3       -0.08449   0.76925    0.27751   1.00
C3       0.08486    0.71805    0.24348   1.00
C3a      -0.08328   0.72609    0.22193   1.00
H1       0.02575    0.81271    0.26159   1.00
H1       -0.02875   0.78741    0.30014   1.00
H1       0.09760    0.81426    0.26235   1.00
H1       -0.10056   0.78564    0.29923   1.00
H1       0.10118    0.69147    0.23851   1.00
C5       -0.10380   0.70225    0.19127   1.00
H1       -0.02622   0.71086    0.20039   1.00
H1       0.02941    0.68899    0.23840   1.00
H2       -0.13599   0.70360    0.19507   1.00
H2       -0.09705   0.71484    0.16215   1.00
N1       -0.09125   0.66149    0.19308   1.00
C6       -0.09644   0.63703    0.22339   1.00
C6       -0.07288   0.64144    0.16472   1.00
C6       -0.08102   0.60096    0.21442   1.00
C6       -0.06604   0.60376    0.17710   1.00
H3       -0.11049   0.64491    0.25059   1.00
H3       -0.06484   0.65335    0.13659   1.00
H3       -0.08076   0.57546    0.23299   1.00
H3       -0.05180   0.58087    0.16073   1.00
C4       0.47917    0.75073    0.25027   1.00
C4       0.52083    0.74927    0.24973   1.00
C3       0.45846    0.78580    0.24330   1.00
C3       0.54321    0.77033    0.22217   1.00
C3       0.45643    0.71684    0.25689   1.00
C3       0.54187    0.72726    0.27764   1.00
C2       0.39487    0.75302    0.24953   1.00
C2       0.60514    0.74727    0.25034   1.00
C3       0.41715    0.78685    0.24301   1.00
C3       0.58449    0.76925    0.22249   1.00
C3       0.41514    0.71805    0.25652   1.00
C3a      0.58328    0.72609    0.27807   1.00
H1       0.47425    0.81271    0.23841   1.00
H1       0.52875    0.78741    0.19986   1.00
H1       0.40240    0.81426    0.23765   1.00
H1       0.60056    0.78564    0.20077   1.00
H1       0.39882    0.69147    0.26149   1.00
C5       0.60380    0.70225    0.30873   1.00
H1       0.52622    0.71086    0.29961   1.00
H1       0.47059    0.68899    0.26160   1.00
H2       0.63599    0.70360    0.30493   1.00
H2       0.59705    0.71484    0.33785   1.00
N1       0.59125    0.66149    0.30692   1.00
C6       0.59644    0.63703    0.27661   1.00
C6       0.57288    0.64144    0.33528   1.00
C6       0.58102    0.60096    0.28558   1.00
C6       0.56604    0.60376    0.32290   1.00
H3       0.61049    0.64491    0.24941   1.00
H3       0.56484    0.65335    0.36341   1.00
H3       0.58076    0.57546    0.26701   1.00
H3       0.55180    0.58087    0.33927   1.00
C4       0.24973    0.52083    0.25073   1.00
C4       0.25027    0.47917    0.24927   1.00
C3       0.25670    0.54154    0.28580   1.00
C3       0.27783    0.45679    0.27033   1.00
C3       0.24311    0.54357    0.21684   1.00
C3       0.22236    0.45813    0.22726   1.00
C2       0.25047    0.60513    0.25302   1.00
C2       0.24966    0.39486    0.24727   1.00
C3       0.25699    0.58285    0.28685   1.00
C3       0.27751    0.41551    0.26925   1.00
C3       0.24348    0.58486    0.21805   1.00
C3a      0.22193    0.41672    0.22609   1.00
H1       0.26159    0.52575    0.31271   1.00
H1       0.30014    0.47125    0.28741   1.00
H1       0.26235    0.59760    0.31426   1.00
H1       0.29923    0.39944    0.28564   1.00
H1       0.23851    0.60118    0.19147   1.00
C5       0.19127    0.39620    0.20225   1.00
H1       0.20039    0.47378    0.21086   1.00
H1       0.23840    0.52941    0.18899   1.00
H2       0.19507    0.36401    0.20360   1.00
H2       0.16215    0.40295    0.21484   1.00
N1       0.19308    0.40875    0.16149   1.00
C6       0.22339    0.40356    0.13703   1.00
C6       0.16472    0.42712    0.14144   1.00
C6       0.21442    0.41898    0.10096   1.00
C6       0.17710    0.43396    0.10376   1.00
H3       0.25059    0.38951    0.14491   1.00
H3       0.13659    0.43516    0.15335   1.00
H3       0.23299    0.41924    0.07546   1.00
H3       0.16073    0.44820    0.08087   1.00
C4       0.25073    0.74973    0.02083   1.00
C4       0.24927    0.75027    -0.02083   1.00
C3       0.28580    0.75670    0.04154   1.00
C3       0.27033    0.77783    -0.04321   1.00
C3       0.21684    0.74311    0.04357   1.00
C3       0.22726    0.72236    -0.04187   1.00
C2       0.25302    0.75047    0.10513   1.00
C2       0.24727    0.74966    -0.10514   1.00
C3       0.28685    0.75699    0.08285   1.00
C3       0.26925    0.77751    -0.08449   1.00
C3       0.21805    0.74348    0.08486   1.00
C3a      0.22609    0.72193    -0.08328   1.00
H1       0.31271    0.76159    0.02575   1.00
H1       0.28741    0.80014    -0.02875   1.00
H1       0.31426    0.76235    0.09760   1.00
H1       0.28564    0.79923    -0.10056   1.00
H1       0.19147    0.73851    0.10118   1.00
C5       0.20225    0.69127    -0.10380   1.00
H1       0.21086    0.70039    -0.02622   1.00
H1       0.18899    0.73840    0.02941   1.00
H2       0.20360    0.69507    -0.13599   1.00
H2       0.21484    0.66215    -0.09705   1.00
N1       0.16149    0.69308    -0.09125   1.00
C6       0.13703    0.72339    -0.09644   1.00
C6       0.14144    0.66472    -0.07288   1.00
C6       0.10096    0.71442    -0.08102   1.00
C6       0.10376    0.67710    -0.06604   1.00
H3       0.14491    0.75059    -0.11049   1.00
H3       0.15335    0.63659    -0.06484   1.00
H3       0.07546    0.73299    -0.08076   1.00
H3       0.08087    0.66073    -0.05180   1.00
C4       0.75073    0.25027    0.47917   1.00
C4       0.74927    0.24973    0.52083   1.00
C3       0.78580    0.24330    0.45846   1.00
C3       0.77033    0.22217    0.54321   1.00
C3       0.71684    0.25689    0.45643   1.00
C3       0.72726    0.27764    0.54187   1.00
C2       0.75302    0.24953    0.39487   1.00
C2       0.74727    0.25034    0.60514   1.00
C3       0.78685    0.24301    0.41715   1.00
C3       0.76925    0.22249    0.58449   1.00
C3       0.71805    0.25652    0.41514   1.00
C3a      0.72609    0.27807    0.58328   1.00
H1       0.81271    0.23841    0.47425   1.00
H1       0.78741    0.19986    0.52875   1.00
H1       0.81426    0.23765    0.40240   1.00
H1       0.78564    0.20077    0.60056   1.00
H1       0.69147    0.26149    0.39882   1.00
C5       0.70225    0.30873    0.60380   1.00
H1       0.71086    0.29961    0.52622   1.00
H1       0.68899    0.26160    0.47059   1.00
H2       0.70360    0.30493    0.63599   1.00
H2       0.71484    0.33785    0.59705   1.00
N1       0.66149    0.30692    0.59125   1.00
C6       0.63703    0.27661    0.59644   1.00
C6       0.64144    0.33528    0.57288   1.00
C6       0.60096    0.28558    0.58102   1.00
C6       0.60376    0.32290    0.56604   1.00
H3       0.64491    0.24941    0.61049   1.00
H3       0.65335    0.36341    0.56484   1.00
H3       0.57546    0.26701    0.58076   1.00
H3       0.58087    0.33927    0.55180   1.00
C4       0.75027    0.47917    0.25073   1.00
C4       0.74973    0.52083    0.24927   1.00
C3       0.74330    0.45846    0.28580   1.00
C3       0.72217    0.54321    0.27033   1.00
C3       0.75689    0.45643    0.21684   1.00
C3       0.77764    0.54187    0.22726   1.00
C2       0.74953    0.39487    0.25302   1.00
C2       0.75034    0.60514    0.24727   1.00
C3       0.74301    0.41715    0.28685   1.00
C3       0.72249    0.58449    0.26925   1.00
C3       0.75652    0.41514    0.21805   1.00
C3a      0.77807    0.58328    0.22609   1.00
H1       0.73841    0.47425    0.31271   1.00
H1       0.69986    0.52875    0.28741   1.00
H1       0.73765    0.40240    0.31426   1.00
H1       0.70077    0.60056    0.28564   1.00
H1       0.76149    0.39882    0.19147   1.00
C5       0.80873    0.60380    0.20225   1.00
H1       0.79961    0.52622    0.21086   1.00
H1       0.76160    0.47059    0.18899   1.00
H2       0.80493    0.63599    0.20360   1.00
H2       0.83785    0.59705    0.21484   1.00
N1       0.80692    0.59125    0.16149   1.00
C6       0.77661    0.59644    0.13703   1.00
C6       0.83528    0.57288    0.14144   1.00
C6       0.78558    0.58102    0.10096   1.00
C6       0.82290    0.56604    0.10376   1.00
H3       0.74941    0.61049    0.14491   1.00
H3       0.86341    0.56484    0.15335   1.00
H3       0.76701    0.58076    0.07546   1.00
H3       0.83927    0.55180    0.08087   1.00
C4       0.52083    0.25073    0.24973   1.00
C4       0.47917    0.24927    0.25027   1.00
C3       0.54154    0.28580    0.25670   1.00
C3       0.45679    0.27033    0.27783   1.00
C3       0.54357    0.21684    0.24311   1.00
C3       0.45813    0.22726    0.22236   1.00
C2       0.60513    0.25302    0.25047   1.00
C2       0.39486    0.24727    0.24966   1.00
C3       0.58285    0.28685    0.25699   1.00
C3       0.41551    0.26925    0.27751   1.00
C3       0.58486    0.21805    0.24348   1.00
C3a      0.41672    0.22609    0.22193   1.00
H1       0.52575    0.31271    0.26159   1.00
H1       0.47125    0.28741    0.30014   1.00
H1       0.59760    0.31426    0.26235   1.00
H1       0.39944    0.28564    0.29923   1.00
H1       0.60118    0.19147    0.23851   1.00
C5       0.39620    0.20225    0.19127   1.00
H1       0.47378    0.21086    0.20039   1.00
H1       0.52941    0.18899    0.23840   1.00
H2       0.36401    0.20360    0.19507   1.00
H2       0.40295    0.21484    0.16215   1.00
N1       0.40875    0.16149    0.19308   1.00
C6       0.40356    0.13703    0.22339   1.00
C6       0.42712    0.14144    0.16472   1.00
C6       0.41898    0.10096    0.21442   1.00
C6       0.43396    0.10376    0.17710   1.00
H3       0.38951    0.14491    0.25059   1.00
H3       0.43516    0.15335    0.13659   1.00
H3       0.41924    0.07546    0.23299   1.00
H3       0.44820    0.08087    0.16073   1.00
C4       0.97917    0.25073    0.25027   1.00
C4       1.02083    0.24927    0.24973   1.00
C3       0.95846    0.28580    0.24330   1.00
C3       1.04321    0.27033    0.22217   1.00
C3       0.95643    0.21684    0.25689   1.00
C3       1.04187    0.22726    0.27764   1.00
C2       0.89487    0.25302    0.24953   1.00
C2       1.10514    0.24727    0.25034   1.00
C3       0.91715    0.28685    0.24301   1.00
C3       1.08449    0.26925    0.22249   1.00
C3       0.91514    0.21805    0.25652   1.00
C3a      1.08328    0.22609    0.27807   1.00
H1       0.97425    0.31271    0.23841   1.00
H1       1.02875    0.28741    0.19986   1.00
H1       0.90240    0.31426    0.23765   1.00
H1       1.10056    0.28564    0.20077   1.00
H1       0.89882    0.19147    0.26149   1.00
C5       1.10380    0.20225    0.30873   1.00
H1       1.02622    0.21086    0.29961   1.00
H1       0.97059    0.18899    0.26160   1.00
H2       1.13599    0.20360    0.30493   1.00
H2       1.09705    0.21484    0.33785   1.00
N1       1.09125    0.16149    0.30692   1.00
C6       1.09644    0.13703    0.27661   1.00
C6       1.07288    0.14144    0.33528   1.00
C6       1.08102    0.10096    0.28558   1.00
C6       1.06604    0.10376    0.32290   1.00
H3       1.11049    0.14491    0.24941   1.00
H3       1.06484    0.15335    0.36341   1.00
H3       1.08076    0.07546    0.26701   1.00
H3       1.05180    0.08087    0.33927   1.00
C4       0.74973    0.02083    0.25073   1.00
C4       0.75027    -0.02083   0.24927   1.00
C3       0.75670    0.04154    0.28580   1.00
C3       0.77783    -0.04321   0.27033   1.00
C3       0.74311    0.04357    0.21684   1.00
C3       0.72236    -0.04187   0.22726   1.00
C2       0.75047    0.10513    0.25302   1.00
C2       0.74966    -0.10514   0.24727   1.00
C3       0.75699    0.08285    0.28685   1.00
C3       0.77751    -0.08449   0.26925   1.00
C3       0.74348    0.08486    0.21805   1.00
C3a      0.72193    -0.08328   0.22609   1.00
H1       0.76159    0.02575    0.31271   1.00
H1       0.80014    -0.02875   0.28741   1.00
H1       0.76235    0.09760    0.31426   1.00
H1       0.79923    -0.10056   0.28564   1.00
H1       0.73851    0.10118    0.19147   1.00
C5       0.69127    -0.10380   0.20225   1.00
H1       0.70039    -0.02622   0.21086   1.00
H1       0.73840    0.02941    0.18899   1.00
H2       0.69507    -0.13599   0.20360   1.00
H2       0.66215    -0.09705   0.21484   1.00
N1       0.69308    -0.09125   0.16149   1.00
C6       0.72339    -0.09644   0.13703   1.00
C6       0.66472    -0.07288   0.14144   1.00
C6       0.71442    -0.08102   0.10096   1.00
C6       0.67710    -0.06604   0.10376   1.00
H3       0.75059    -0.11049   0.14491   1.00
H3       0.63659    -0.06484   0.15335   1.00
H3       0.73299    -0.08076   0.07546   1.00
H3       0.66073    -0.05180   0.08087   1.00
C4       0.75073    0.24973    0.02083   1.00
C4       0.74927    0.25027    -0.02083   1.00
C3       0.78580    0.25670    0.04154   1.00
C3       0.77033    0.27783    -0.04321   1.00
C3       0.71684    0.24311    0.04357   1.00
C3       0.72726    0.22236    -0.04187   1.00
C2       0.75302    0.25047    0.10513   1.00
C2       0.74727    0.24966    -0.10514   1.00
C3       0.78685    0.25699    0.08285   1.00
C3       0.76925    0.27751    -0.08449   1.00
C3       0.71805    0.24348    0.08486   1.00
C3a      0.72609    0.22193    -0.08328   1.00
H1       0.81271    0.26159    0.02575   1.00
H1       0.78741    0.30014    -0.02875   1.00
H1       0.81426    0.26235    0.09760   1.00
H1       0.78564    0.29923    -0.10056   1.00
H1       0.69147    0.23851    0.10118   1.00
C5       0.70225    0.19127    -0.10380   1.00
H1       0.71086    0.20039    -0.02622   1.00
H1       0.68899    0.23840    0.02941   1.00
H2       0.70360    0.19507    -0.13599   1.00
H2       0.71484    0.16215    -0.09705   1.00
N1       0.66149    0.19308    -0.09125   1.00
C6       0.63703    0.22339    -0.09644   1.00
C6       0.64144    0.16472    -0.07288   1.00
C6       0.60096    0.21442    -0.08102   1.00
C6       0.60376    0.17710    -0.06604   1.00
H3       0.64491    0.25059    -0.11049   1.00
H3       0.65335    0.13659    -0.06484   1.00
H3       0.57546    0.23299    -0.08076   1.00
H3       0.58087    0.16073    -0.05180   1.00
C4       0.91573    0.91527    1.14417   1.00
C4       0.91427    0.91473    1.18583   1.00
C3       0.95080    0.90830    1.12346   1.00
C3       0.93533    0.88717    1.20821   1.00
C3       0.88184    0.92189    1.12143   1.00
C3       0.89226    0.94264    1.20687   1.00
C2       0.91802    0.91453    1.05987   1.00
C2       0.91227    0.91534    1.27014   1.00
C3       0.95185    0.90801    1.08215   1.00
C3       0.93425    0.88749    1.24949   1.00
C3       0.88305    0.92152    1.08014   1.00
C3a      0.89109    0.94307    1.24828   1.00
H1       0.97771    0.90341    1.13925   1.00
H1       0.95241    0.86486    1.19375   1.00
H1       0.97926    0.90265    1.06740   1.00
H1       0.95064    0.86577    1.26556   1.00
H1       0.85647    0.92649    1.06382   1.00
C5       0.86725    0.97373    1.26880   1.00
H1       0.87586    0.96461    1.19122   1.00
H1       0.85399    0.92660    1.13559   1.00
H2       0.86860    0.96993    1.30099   1.00
H2       0.87984    1.00285    1.26205   1.00
N1       0.82649    0.97192    1.25625   1.00
C6       0.80203    0.94161    1.26144   1.00
C6       0.80644    1.00028    1.23788   1.00
C6       0.76596    0.95058    1.24602   1.00
C6       0.76876    0.98790    1.23104   1.00
H3       0.80991    0.91441    1.27549   1.00
H3       0.81835    1.02841    1.22984   1.00
H3       0.74046    0.93201    1.24576   1.00
H3       0.74587    1.00427    1.21680   1.00
C4       0.91527    1.14417    0.91573   1.00
C4       0.91473    1.18583    0.91427   1.00
C3       0.90830    1.12346    0.95080   1.00
C3       0.88717    1.20821    0.93533   1.00
C3       0.92189    1.12143    0.88184   1.00
C3       0.94264    1.20687    0.89226   1.00
C2       0.91453    1.05987    0.91802   1.00
C2       0.91534    1.27014    0.91227   1.00
C3       0.90801    1.08215    0.95185   1.00
C3       0.88749    1.24949    0.93425   1.00
C3       0.92152    1.08014    0.88305   1.00
C3a      0.94307    1.24828    0.89109   1.00
H1       0.90341    1.13925    0.97771   1.00
H1       0.86486    1.19375    0.95241   1.00
H1       0.90265    1.06740    0.97926   1.00
H1       0.86577    1.26556    0.95064   1.00
H1       0.92649    1.06382    0.85647   1.00
C5       0.97373    1.26880    0.86725   1.00
H1       0.96461    1.19122    0.87586   1.00
H1       0.92660    1.13559    0.85399   1.00
H2       0.96993    1.30099    0.86860   1.00
H2       1.00285    1.26205    0.87984   1.00
N1       0.97192    1.25625    0.82649   1.00
C6       0.94161    1.26144    0.80203   1.00
C6       1.00028    1.23788    0.80644   1.00
C6       0.95058    1.24602    0.76596   1.00
C6       0.98790    1.23104    0.76876   1.00
H3       0.91441    1.27549    0.80991   1.00
H3       1.02841    1.22984    0.81835   1.00
H3       0.93201    1.24576    0.74046   1.00
H3       1.00427    1.21680    0.74587   1.00
C4       0.68583    0.91573    0.91473   1.00
C4       0.64417    0.91427    0.91527   1.00
C3       0.70654    0.95080    0.92170   1.00
C3       0.62179    0.93533    0.94283   1.00
C3       0.70857    0.88184    0.90811   1.00
C3       0.62313    0.89226    0.88736   1.00
C2       0.77013    0.91802    0.91547   1.00
C2       0.55986    0.91227    0.91466   1.00
C3       0.74785    0.95185    0.92199   1.00
C3       0.58051    0.93425    0.94251   1.00
C3       0.74986    0.88305    0.90848   1.00
C3a      0.58172    0.89109    0.88693   1.00
H1       0.69075    0.97771    0.92659   1.00
H1       0.63625    0.95241    0.96514   1.00
H1       0.76260    0.97926    0.92735   1.00
H1       0.56444    0.95064    0.96423   1.00
H1       0.76618    0.85647    0.90351   1.00
C5       0.56120    0.86725    0.85627   1.00
H1       0.63878    0.87586    0.86539   1.00
H1       0.69441    0.85399    0.90340   1.00
H2       0.52901    0.86860    0.86007   1.00
H2       0.56795    0.87984    0.82715   1.00
N1       0.57375    0.82649    0.85808   1.00
C6       0.56856    0.80203    0.88839   1.00
C6       0.59212    0.80644    0.82972   1.00
C6       0.58398    0.76596    0.87942   1.00
C6       0.59896    0.76876    0.84210   1.00
H3       0.55451    0.80991    0.91559   1.00
H3       0.60016    0.81835    0.80159   1.00
H3       0.58424    0.74046    0.89799   1.00
H3       0.61320    0.74587    0.82573   1.00
C4       1.14417    0.91573    0.91527   1.00
C4       1.18583    0.91427    0.91473   1.00
C3       1.12346    0.95080    0.90830   1.00
C3       1.20821    0.93533    0.88717   1.00
C3       1.12143    0.88184    0.92189   1.00
C3       1.20687    0.89226    0.94264   1.00
C2       1.05987    0.91802    0.91453   1.00
C2       1.27014    0.91227    0.91534   1.00
C3       1.08215    0.95185    0.90801   1.00
C3       1.24949    0.93425    0.88749   1.00
C3       1.08014    0.88305    0.92152   1.00
C3a      1.24828    0.89109    0.94307   1.00
H1       1.13925    0.97771    0.90341   1.00
H1       1.19375    0.95241    0.86486   1.00
H1       1.06740    0.97926    0.90265   1.00
H1       1.26556    0.95064    0.86577   1.00
H1       1.06382    0.85647    0.92649   1.00
C5       1.26880    0.86725    0.97373   1.00
H1       1.19122    0.87586    0.96461   1.00
H1       1.13559    0.85399    0.92660   1.00
H2       1.30099    0.86860    0.96993   1.00
H2       1.26205    0.87984    1.00285   1.00
N1       1.25625    0.82649    0.97192   1.00
C6       1.26144    0.80203    0.94161   1.00
C6       1.23788    0.80644    1.00028   1.00
C6       1.24602    0.76596    0.95058   1.00
C6       1.23104    0.76876    0.98790   1.00
H3       1.27549    0.80991    0.91441   1.00
H3       1.22984    0.81835    1.02841   1.00
H3       1.24576    0.74046    0.93201   1.00
H3       1.21680    0.74587    1.00427   1.00
C4       0.91473    0.68583    0.91573   1.00
C4       0.91527    0.64417    0.91427   1.00
C3       0.92170    0.70654    0.95080   1.00
C3       0.94283    0.62179    0.93533   1.00
C3       0.90811    0.70857    0.88184   1.00
C3       0.88736    0.62313    0.89226   1.00
C2       0.91547    0.77013    0.91802   1.00
C2       0.91466    0.55986    0.91227   1.00
C3       0.92199    0.74785    0.95185   1.00
C3       0.94251    0.58051    0.93425   1.00
C3       0.90848    0.74986    0.88305   1.00
C3a      0.88693    0.58172    0.89109   1.00
H1       0.92659    0.69075    0.97771   1.00
H1       0.96514    0.63625    0.95241   1.00
H1       0.92735    0.76260    0.97926   1.00
H1       0.96423    0.56444    0.95064   1.00
H1       0.90351    0.76618    0.85647   1.00
C5       0.85627    0.56120    0.86725   1.00
H1       0.86539    0.63878    0.87586   1.00
H1       0.90340    0.69441    0.85399   1.00
H2       0.86007    0.52901    0.86860   1.00
H2       0.82715    0.56795    0.87984   1.00
N1       0.85808    0.57375    0.82649   1.00
C6       0.88839    0.56856    0.80203   1.00
C6       0.82972    0.59212    0.80644   1.00
C6       0.87942    0.58398    0.76596   1.00
C6       0.84210    0.59896    0.76876   1.00
H3       0.91559    0.55451    0.80991   1.00
H3       0.80159    0.60016    0.81835   1.00
H3       0.89799    0.58424    0.74046   1.00
H3       0.82573    0.61320    0.74587   1.00
C4       0.91573    0.91473    0.68583   1.00
C4       0.91427    0.91527    0.64417   1.00
C3       0.95080    0.92170    0.70654   1.00
C3       0.93533    0.94283    0.62179   1.00
C3       0.88184    0.90811    0.70857   1.00
C3       0.89226    0.88736    0.62313   1.00
C2       0.91802    0.91547    0.77013   1.00
C2       0.91227    0.91466    0.55986   1.00
C3       0.95185    0.92199    0.74785   1.00
C3       0.93425    0.94251    0.58051   1.00
C3       0.88305    0.90848    0.74986   1.00
C3a      0.89109    0.88693    0.58172   1.00
H1       0.97771    0.92659    0.69075   1.00
H1       0.95241    0.96514    0.63625   1.00
H1       0.97926    0.92735    0.76260   1.00
H1       0.95064    0.96423    0.56444   1.00
H1       0.85647    0.90351    0.76618   1.00
C5       0.86725    0.85627    0.56120   1.00
H1       0.87586    0.86539    0.63878   1.00
H1       0.85399    0.90340    0.69441   1.00
H2       0.86860    0.86007    0.52901   1.00
H2       0.87984    0.82715    0.56795   1.00
N1       0.82649    0.85808    0.57375   1.00
C6       0.80203    0.88839    0.56856   1.00
C6       0.80644    0.82972    0.59212   1.00
C6       0.76596    0.87942    0.58398   1.00
C6       0.76876    0.84210    0.59896   1.00
H3       0.80991    0.91559    0.55451   1.00
H3       0.81835    0.80159    0.60016   1.00
H3       0.74046    0.89799    0.58424   1.00
H3       0.74587    0.82573    0.61320   1.00
C4       0.41573    0.41527    1.14417   1.00
C4       0.41427    0.41473    1.18583   1.00
C3       0.45080    0.40830    1.12346   1.00
C3       0.43533    0.38717    1.20821   1.00
C3       0.38184    0.42189    1.12143   1.00
C3       0.39226    0.44264    1.20687   1.00
C2       0.41802    0.41453    1.05987   1.00
C2       0.41227    0.41534    1.27014   1.00
C3       0.45185    0.40801    1.08215   1.00
C3       0.43425    0.38749    1.24949   1.00
C3       0.38305    0.42152    1.08014   1.00
C3a      0.39109    0.44307    1.24828   1.00
H1       0.47771    0.40341    1.13925   1.00
H1       0.45241    0.36486    1.19375   1.00
H1       0.47926    0.40265    1.06740   1.00
H1       0.45064    0.36577    1.26556   1.00
H1       0.35647    0.42649    1.06382   1.00
C5       0.36725    0.47373    1.26880   1.00
H1       0.37586    0.46461    1.19122   1.00
H1       0.35399    0.42660    1.13559   1.00
H2       0.36860    0.46993    1.30099   1.00
H2       0.37984    0.50285    1.26205   1.00
N1       0.32649    0.47192    1.25625   1.00
C6       0.30203    0.44161    1.26144   1.00
C6       0.30644    0.50028    1.23788   1.00
C6       0.26596    0.45058    1.24602   1.00
C6       0.26876    0.48790    1.23104   1.00
H3       0.30991    0.41441    1.27549   1.00
H3       0.31835    0.52841    1.22984   1.00
H3       0.24046    0.43201    1.24576   1.00
H3       0.24587    0.50427    1.21680   1.00
C4       0.41527    0.64417    0.91573   1.00
C4       0.41473    0.68583    0.91427   1.00
C3       0.40830    0.62346    0.95080   1.00
C3       0.38717    0.70821    0.93533   1.00
C3       0.42189    0.62143    0.88184   1.00
C3       0.44264    0.70687    0.89226   1.00
C2       0.41453    0.55987    0.91802   1.00
C2       0.41534    0.77014    0.91227   1.00
C3       0.40801    0.58215    0.95185   1.00
C3       0.38749    0.74949    0.93425   1.00
C3       0.42152    0.58014    0.88305   1.00
C3a      0.44307    0.74828    0.89109   1.00
H1       0.40341    0.63925    0.97771   1.00
H1       0.36486    0.69375    0.95241   1.00
H1       0.40265    0.56740    0.97926   1.00
H1       0.36577    0.76556    0.95064   1.00
H1       0.42649    0.56382    0.85647   1.00
C5       0.47373    0.76880    0.86725   1.00
H1       0.46461    0.69122    0.87586   1.00
H1       0.42660    0.63559    0.85399   1.00
H2       0.46993    0.80099    0.86860   1.00
H2       0.50285    0.76205    0.87984   1.00
N1       0.47192    0.75625    0.82649   1.00
C6       0.44161    0.76144    0.80203   1.00
C6       0.50028    0.73788    0.80644   1.00
C6       0.45058    0.74602    0.76596   1.00
C6       0.48790    0.73104    0.76876   1.00
H3       0.41441    0.77549    0.80991   1.00
H3       0.52841    0.72984    0.81835   1.00
H3       0.43201    0.74576    0.74046   1.00
H3       0.50427    0.71680    0.74587   1.00
C4       0.18583    0.41573    0.91473   1.00
C4       0.14417    0.41427    0.91527   1.00
C3       0.20654    0.45080    0.92170   1.00
C3       0.12179    0.43533    0.94283   1.00
C3       0.20857    0.38184    0.90811   1.00
C3       0.12313    0.39226    0.88736   1.00
C2       0.27013    0.41802    0.91547   1.00
C2       0.05986    0.41227    0.91466   1.00
C3       0.24785    0.45185    0.92199   1.00
C3       0.08051    0.43425    0.94251   1.00
C3       0.24986    0.38305    0.90848   1.00
C3a      0.08172    0.39109    0.88693   1.00
H1       0.19075    0.47771    0.92659   1.00
H1       0.13625    0.45241    0.96514   1.00
H1       0.26260    0.47926    0.92735   1.00
H1       0.06444    0.45064    0.96423   1.00
H1       0.26618    0.35647    0.90351   1.00
C5       0.06120    0.36725    0.85627   1.00
H1       0.13878    0.37586    0.86539   1.00
H1       0.19441    0.35399    0.90340   1.00
H2       0.02901    0.36860    0.86007   1.00
H2       0.06795    0.37984    0.82715   1.00
N1       0.07375    0.32649    0.85808   1.00
C6       0.06856    0.30203    0.88839   1.00
C6       0.09212    0.30644    0.82972   1.00
C6       0.08398    0.26596    0.87942   1.00
C6       0.09896    0.26876    0.84210   1.00
H3       0.05451    0.30991    0.91559   1.00
H3       0.10016    0.31835    0.80159   1.00
H3       0.08424    0.24046    0.89799   1.00
H3       0.11320    0.24587    0.82573   1.00
C4       0.64417    0.41573    0.91527   1.00
C4       0.68583    0.41427    0.91473   1.00
C3       0.62346    0.45080    0.90830   1.00
C3       0.70821    0.43533    0.88717   1.00
C3       0.62143    0.38184    0.92189   1.00
C3       0.70687    0.39226    0.94264   1.00
C2       0.55987    0.41802    0.91453   1.00
C2       0.77014    0.41227    0.91534   1.00
C3       0.58215    0.45185    0.90801   1.00
C3       0.74949    0.43425    0.88749   1.00
C3       0.58014    0.38305    0.92152   1.00
C3a      0.74828    0.39109    0.94307   1.00
H1       0.63925    0.47771    0.90341   1.00
H1       0.69375    0.45241    0.86486   1.00
H1       0.56740    0.47926    0.90265   1.00
H1       0.76556    0.45064    0.86577   1.00
H1       0.56382    0.35647    0.92649   1.00
C5       0.76880    0.36725    0.97373   1.00
H1       0.69122    0.37586    0.96461   1.00
H1       0.63559    0.35399    0.92660   1.00
H2       0.80099    0.36860    0.96993   1.00
H2       0.76205    0.37984    1.00285   1.00
N1       0.75625    0.32649    0.97192   1.00
C6       0.76144    0.30203    0.94161   1.00
C6       0.73788    0.30644    1.00028   1.00
C6       0.74602    0.26596    0.95058   1.00
C6       0.73104    0.26876    0.98790   1.00
H3       0.77549    0.30991    0.91441   1.00
H3       0.72984    0.31835    1.02841   1.00
H3       0.74576    0.24046    0.93201   1.00
H3       0.71680    0.24587    1.00427   1.00
C4       0.41473    0.18583    0.91573   1.00
C4       0.41527    0.14417    0.91427   1.00
C3       0.42170    0.20654    0.95080   1.00
C3       0.44283    0.12179    0.93533   1.00
C3       0.40811    0.20857    0.88184   1.00
C3       0.38736    0.12313    0.89226   1.00
C2       0.41547    0.27013    0.91802   1.00
C2       0.41466    0.05986    0.91227   1.00
C3       0.42199    0.24785    0.95185   1.00
C3       0.44251    0.08051    0.93425   1.00
C3       0.40848    0.24986    0.88305   1.00
C3a      0.38693    0.08172    0.89109   1.00
H1       0.42659    0.19075    0.97771   1.00
H1       0.46514    0.13625    0.95241   1.00
H1       0.42735    0.26260    0.97926   1.00
H1       0.46423    0.06444    0.95064   1.00
H1       0.40351    0.26618    0.85647   1.00
C5       0.35627    0.06120    0.86725   1.00
H1       0.36539    0.13878    0.87586   1.00
H1       0.40340    0.19441    0.85399   1.00
H2       0.36007    0.02901    0.86860   1.00
H2       0.32715    0.06795    0.87984   1.00
N1       0.35808    0.07375    0.82649   1.00
C6       0.38839    0.06856    0.80203   1.00
C6       0.32972    0.09212    0.80644   1.00
C6       0.37942    0.08398    0.76596   1.00
C6       0.34210    0.09896    0.76876   1.00
H3       0.41559    0.05451    0.80991   1.00
H3       0.30159    0.10016    0.81835   1.00
H3       0.39799    0.08424    0.74046   1.00
H3       0.32573    0.11320    0.74587   1.00
C4       0.41573    0.41473    0.68583   1.00
C4       0.41427    0.41527    0.64417   1.00
C3       0.45080    0.42170    0.70654   1.00
C3       0.43533    0.44283    0.62179   1.00
C3       0.38184    0.40811    0.70857   1.00
C3       0.39226    0.38736    0.62313   1.00
C2       0.41802    0.41547    0.77013   1.00
C2       0.41227    0.41466    0.55986   1.00
C3       0.45185    0.42199    0.74785   1.00
C3       0.43425    0.44251    0.58051   1.00
C3       0.38305    0.40848    0.74986   1.00
C3a      0.39109    0.38693    0.58172   1.00
H1       0.47771    0.42659    0.69075   1.00
H1       0.45241    0.46514    0.63625   1.00
H1       0.47926    0.42735    0.76260   1.00
H1       0.45064    0.46423    0.56444   1.00
H1       0.35647    0.40351    0.76618   1.00
C5       0.36725    0.35627    0.56120   1.00
H1       0.37586    0.36539    0.63878   1.00
H1       0.35399    0.40340    0.69441   1.00
H2       0.36860    0.36007    0.52901   1.00
H2       0.37984    0.32715    0.56795   1.00
N1       0.32649    0.35808    0.57375   1.00
C6       0.30203    0.38839    0.56856   1.00
C6       0.30644    0.32972    0.59212   1.00
C6       0.26596    0.37942    0.58398   1.00
C6       0.26876    0.34210    0.59896   1.00
H3       0.30991    0.41559    0.55451   1.00
H3       0.31835    0.30159    0.60016   1.00
H3       0.24046    0.39799    0.58424   1.00
H3       0.24587    0.32573    0.61320   1.00
C4       0.41573    0.91527    0.64417   1.00
C4       0.41427    0.91473    0.68583   1.00
C3       0.45080    0.90830    0.62346   1.00
C3       0.43533    0.88717    0.70821   1.00
C3       0.38184    0.92189    0.62143   1.00
C3       0.39226    0.94264    0.70687   1.00
C2       0.41802    0.91453    0.55987   1.00
C2       0.41227    0.91534    0.77014   1.00
C3       0.45185    0.90801    0.58215   1.00
C3       0.43425    0.88749    0.74949   1.00
C3       0.38305    0.92152    0.58014   1.00
C3a      0.39109    0.94307    0.74828   1.00
H1       0.47771    0.90341    0.63925   1.00
H1       0.45241    0.86486    0.69375   1.00
H1       0.47926    0.90265    0.56740   1.00
H1       0.45064    0.86577    0.76556   1.00
H1       0.35647    0.92649    0.56382   1.00
C5       0.36725    0.97373    0.76880   1.00
H1       0.37586    0.96461    0.69122   1.00
H1       0.35399    0.92660    0.63559   1.00
H2       0.36860    0.96993    0.80099   1.00
H2       0.37984    1.00285    0.76205   1.00
N1       0.32649    0.97192    0.75625   1.00
C6       0.30203    0.94161    0.76144   1.00
C6       0.30644    1.00028    0.73788   1.00
C6       0.26596    0.95058    0.74602   1.00
C6       0.26876    0.98790    0.73104   1.00
H3       0.30991    0.91441    0.77549   1.00
H3       0.31835    1.02841    0.72984   1.00
H3       0.24046    0.93201    0.74576   1.00
H3       0.24587    1.00427    0.71680   1.00
C4       0.41527    1.14417    0.41573   1.00
C4       0.41473    1.18583    0.41427   1.00
C3       0.40830    1.12346    0.45080   1.00
C3       0.38717    1.20821    0.43533   1.00
C3       0.42189    1.12143    0.38184   1.00
C3       0.44264    1.20687    0.39226   1.00
C2       0.41453    1.05987    0.41802   1.00
C2       0.41534    1.27014    0.41227   1.00
C3       0.40801    1.08215    0.45185   1.00
C3       0.38749    1.24949    0.43425   1.00
C3       0.42152    1.08014    0.38305   1.00
C3a      0.44307    1.24828    0.39109   1.00
H1       0.40341    1.13925    0.47771   1.00
H1       0.36486    1.19375    0.45241   1.00
H1       0.40265    1.06740    0.47926   1.00
H1       0.36577    1.26556    0.45064   1.00
H1       0.42649    1.06382    0.35647   1.00
C5       0.47373    1.26880    0.36725   1.00
H1       0.46461    1.19122    0.37586   1.00
H1       0.42660    1.13559    0.35399   1.00
H2       0.46993    1.30099    0.36860   1.00
H2       0.50285    1.26205    0.37984   1.00
N1       0.47192    1.25625    0.32649   1.00
C6       0.44161    1.26144    0.30203   1.00
C6       0.50028    1.23788    0.30644   1.00
C6       0.45058    1.24602    0.26596   1.00
C6       0.48790    1.23104    0.26876   1.00
H3       0.41441    1.27549    0.30991   1.00
H3       0.52841    1.22984    0.31835   1.00
H3       0.43201    1.24576    0.24046   1.00
H3       0.50427    1.21680    0.24587   1.00
C4       0.18583    0.91573    0.41473   1.00
C4       0.14417    0.91427    0.41527   1.00
C3       0.20654    0.95080    0.42170   1.00
C3       0.12179    0.93533    0.44283   1.00
C3       0.20857    0.88184    0.40811   1.00
C3       0.12313    0.89226    0.38736   1.00
C2       0.27013    0.91802    0.41547   1.00
C2       0.05986    0.91227    0.41466   1.00
C3       0.24785    0.95185    0.42199   1.00
C3       0.08051    0.93425    0.44251   1.00
C3       0.24986    0.88305    0.40848   1.00
C3a      0.08172    0.89109    0.38693   1.00
H1       0.19075    0.97771    0.42659   1.00
H1       0.13625    0.95241    0.46514   1.00
H1       0.26260    0.97926    0.42735   1.00
H1       0.06444    0.95064    0.46423   1.00
H1       0.26618    0.85647    0.40351   1.00
C5       0.06120    0.86725    0.35627   1.00
H1       0.13878    0.87586    0.36539   1.00
H1       0.19441    0.85399    0.40340   1.00
H2       0.02901    0.86860    0.36007   1.00
H2       0.06795    0.87984    0.32715   1.00
N1       0.07375    0.82649    0.35808   1.00
C6       0.06856    0.80203    0.38839   1.00
C6       0.09212    0.80644    0.32972   1.00
C6       0.08398    0.76596    0.37942   1.00
C6       0.09896    0.76876    0.34210   1.00
H3       0.05451    0.80991    0.41559   1.00
H3       0.10016    0.81835    0.30159   1.00
H3       0.08424    0.74046    0.39799   1.00
H3       0.11320    0.74587    0.32573   1.00
C4       0.64417    0.91573    0.41527   1.00
C4       0.68583    0.91427    0.41473   1.00
C3       0.62346    0.95080    0.40830   1.00
C3       0.70821    0.93533    0.38717   1.00
C3       0.62143    0.88184    0.42189   1.00
C3       0.70687    0.89226    0.44264   1.00
C2       0.55987    0.91802    0.41453   1.00
C2       0.77014    0.91227    0.41534   1.00
C3       0.58215    0.95185    0.40801   1.00
C3       0.74949    0.93425    0.38749   1.00
C3       0.58014    0.88305    0.42152   1.00
C3a      0.74828    0.89109    0.44307   1.00
H1       0.63925    0.97771    0.40341   1.00
H1       0.69375    0.95241    0.36486   1.00
H1       0.56740    0.97926    0.40265   1.00
H1       0.76556    0.95064    0.36577   1.00
H1       0.56382    0.85647    0.42649   1.00
C5       0.76880    0.86725    0.47373   1.00
H1       0.69122    0.87586    0.46461   1.00
H1       0.63559    0.85399    0.42660   1.00
H2       0.80099    0.86860    0.46993   1.00
H2       0.76205    0.87984    0.50285   1.00
N1       0.75625    0.82649    0.47192   1.00
C6       0.76144    0.80203    0.44161   1.00
C6       0.73788    0.80644    0.50028   1.00
C6       0.74602    0.76596    0.45058   1.00
C6       0.73104    0.76876    0.48790   1.00
H3       0.77549    0.80991    0.41441   1.00
H3       0.72984    0.81835    0.52841   1.00
H3       0.74576    0.74046    0.43201   1.00
H3       0.71680    0.74587    0.50427   1.00
C4       0.41473    0.68583    0.41573   1.00
C4       0.41527    0.64417    0.41427   1.00
C3       0.42170    0.70654    0.45080   1.00
C3       0.44283    0.62179    0.43533   1.00
C3       0.40811    0.70857    0.38184   1.00
C3       0.38736    0.62313    0.39226   1.00
C2       0.41547    0.77013    0.41802   1.00
C2       0.41466    0.55986    0.41227   1.00
C3       0.42199    0.74785    0.45185   1.00
C3       0.44251    0.58051    0.43425   1.00
C3       0.40848    0.74986    0.38305   1.00
C3a      0.38693    0.58172    0.39109   1.00
H1       0.42659    0.69075    0.47771   1.00
H1       0.46514    0.63625    0.45241   1.00
H1       0.42735    0.76260    0.47926   1.00
H1       0.46423    0.56444    0.45064   1.00
H1       0.40351    0.76618    0.35647   1.00
C5       0.35627    0.56120    0.36725   1.00
H1       0.36539    0.63878    0.37586   1.00
H1       0.40340    0.69441    0.35399   1.00
H2       0.36007    0.52901    0.36860   1.00
H2       0.32715    0.56795    0.37984   1.00
N1       0.35808    0.57375    0.32649   1.00
C6       0.38839    0.56856    0.30203   1.00
C6       0.32972    0.59212    0.30644   1.00
C6       0.37942    0.58398    0.26596   1.00
C6       0.34210    0.59896    0.26876   1.00
H3       0.41559    0.55451    0.30991   1.00
H3       0.30159    0.60016    0.31835   1.00
H3       0.39799    0.58424    0.24046   1.00
H3       0.32573    0.61320    0.24587   1.00
C4       0.41573    0.91473    0.18583   1.00
C4       0.41427    0.91527    0.14417   1.00
C3       0.45080    0.92170    0.20654   1.00
C3       0.43533    0.94283    0.12179   1.00
C3       0.38184    0.90811    0.20857   1.00
C3       0.39226    0.88736    0.12313   1.00
C2       0.41802    0.91547    0.27013   1.00
C2       0.41227    0.91466    0.05986   1.00
C3       0.45185    0.92199    0.24785   1.00
C3       0.43425    0.94251    0.08051   1.00
C3       0.38305    0.90848    0.24986   1.00
C3a      0.39109    0.88693    0.08172   1.00
H1       0.47771    0.92659    0.19075   1.00
H1       0.45241    0.96514    0.13625   1.00
H1       0.47926    0.92735    0.26260   1.00
H1       0.45064    0.96423    0.06444   1.00
H1       0.35647    0.90351    0.26618   1.00
C5       0.36725    0.85627    0.06120   1.00
H1       0.37586    0.86539    0.13878   1.00
H1       0.35399    0.90340    0.19441   1.00
H2       0.36860    0.86007    0.02901   1.00
H2       0.37984    0.82715    0.06795   1.00
N1       0.32649    0.85808    0.07375   1.00
C6       0.30203    0.88839    0.06856   1.00
C6       0.30644    0.82972    0.09212   1.00
C6       0.26596    0.87942    0.08398   1.00
C6       0.26876    0.84210    0.09896   1.00
H3       0.30991    0.91559    0.05451   1.00
H3       0.31835    0.80159    0.10016   1.00
H3       0.24046    0.89799    0.08424   1.00
H3       0.24587    0.82573    0.11320   1.00
C4       0.91573    0.41527    0.64417   1.00
C4       0.91427    0.41473    0.68583   1.00
C3       0.95080    0.40830    0.62346   1.00
C3       0.93533    0.38717    0.70821   1.00
C3       0.88184    0.42189    0.62143   1.00
C3       0.89226    0.44264    0.70687   1.00
C2       0.91802    0.41453    0.55987   1.00
C2       0.91227    0.41534    0.77014   1.00
C3       0.95185    0.40801    0.58215   1.00
C3       0.93425    0.38749    0.74949   1.00
C3       0.88305    0.42152    0.58014   1.00
C3a      0.89109    0.44307    0.74828   1.00
H1       0.97771    0.40341    0.63925   1.00
H1       0.95241    0.36486    0.69375   1.00
H1       0.97926    0.40265    0.56740   1.00
H1       0.95064    0.36577    0.76556   1.00
H1       0.85647    0.42649    0.56382   1.00
C5       0.86725    0.47373    0.76880   1.00
H1       0.87586    0.46461    0.69122   1.00
H1       0.85399    0.42660    0.63559   1.00
H2       0.86860    0.46993    0.80099   1.00
H2       0.87984    0.50285    0.76205   1.00
N1       0.82649    0.47192    0.75625   1.00
C6       0.80203    0.44161    0.76144   1.00
C6       0.80644    0.50028    0.73788   1.00
C6       0.76596    0.45058    0.74602   1.00
C6       0.76876    0.48790    0.73104   1.00
H3       0.80991    0.41441    0.77549   1.00
H3       0.81835    0.52841    0.72984   1.00
H3       0.74046    0.43201    0.74576   1.00
H3       0.74587    0.50427    0.71680   1.00
C4       0.91527    0.64417    0.41573   1.00
C4       0.91473    0.68583    0.41427   1.00
C3       0.90830    0.62346    0.45080   1.00
C3       0.88717    0.70821    0.43533   1.00
C3       0.92189    0.62143    0.38184   1.00
C3       0.94264    0.70687    0.39226   1.00
C2       0.91453    0.55987    0.41802   1.00
C2       0.91534    0.77014    0.41227   1.00
C3       0.90801    0.58215    0.45185   1.00
C3       0.88749    0.74949    0.43425   1.00
C3       0.92152    0.58014    0.38305   1.00
C3a      0.94307    0.74828    0.39109   1.00
H1       0.90341    0.63925    0.47771   1.00
H1       0.86486    0.69375    0.45241   1.00
H1       0.90265    0.56740    0.47926   1.00
H1       0.86577    0.76556    0.45064   1.00
H1       0.92649    0.56382    0.35647   1.00
C5       0.97373    0.76880    0.36725   1.00
H1       0.96461    0.69122    0.37586   1.00
H1       0.92660    0.63559    0.35399   1.00
H2       0.96993    0.80099    0.36860   1.00
H2       1.00285    0.76205    0.37984   1.00
N1       0.97192    0.75625    0.32649   1.00
C6       0.94161    0.76144    0.30203   1.00
C6       1.00028    0.73788    0.30644   1.00
C6       0.95058    0.74602    0.26596   1.00
C6       0.98790    0.73104    0.26876   1.00
H3       0.91441    0.77549    0.30991   1.00
H3       1.02841    0.72984    0.31835   1.00
H3       0.93201    0.74576    0.24046   1.00
H3       1.00427    0.71680    0.24587   1.00
C4       0.68583    0.41573    0.41473   1.00
C4       0.64417    0.41427    0.41527   1.00
C3       0.70654    0.45080    0.42170   1.00
C3       0.62179    0.43533    0.44283   1.00
C3       0.70857    0.38184    0.40811   1.00
C3       0.62313    0.39226    0.38736   1.00
C2       0.77013    0.41802    0.41547   1.00
C2       0.55986    0.41227    0.41466   1.00
C3       0.74785    0.45185    0.42199   1.00
C3       0.58051    0.43425    0.44251   1.00
C3       0.74986    0.38305    0.40848   1.00
C3a      0.58172    0.39109    0.38693   1.00
H1       0.69075    0.47771    0.42659   1.00
H1       0.63625    0.45241    0.46514   1.00
H1       0.76260    0.47926    0.42735   1.00
H1       0.56444    0.45064    0.46423   1.00
H1       0.76618    0.35647    0.40351   1.00
C5       0.56120    0.36725    0.35627   1.00
H1       0.63878    0.37586    0.36539   1.00
H1       0.69441    0.35399    0.40340   1.00
H2       0.52901    0.36860    0.36007   1.00
H2       0.56795    0.37984    0.32715   1.00
N1       0.57375    0.32649    0.35808   1.00
C6       0.56856    0.30203    0.38839   1.00
C6       0.59212    0.30644    0.32972   1.00
C6       0.58398    0.26596    0.37942   1.00
C6       0.59896    0.26876    0.34210   1.00
H3       0.55451    0.30991    0.41559   1.00
H3       0.60016    0.31835    0.30159   1.00
H3       0.58424    0.24046    0.39799   1.00
H3       0.61320    0.24587    0.32573   1.00
C4       1.14417    0.41573    0.41527   1.00
C4       1.18583    0.41427    0.41473   1.00
C3       1.12346    0.45080    0.40830   1.00
C3       1.20821    0.43533    0.38717   1.00
C3       1.12143    0.38184    0.42189   1.00
C3       1.20687    0.39226    0.44264   1.00
C2       1.05987    0.41802    0.41453   1.00
C2       1.27014    0.41227    0.41534   1.00
C3       1.08215    0.45185    0.40801   1.00
C3       1.24949    0.43425    0.38749   1.00
C3       1.08014    0.38305    0.42152   1.00
C3a      1.24828    0.39109    0.44307   1.00
H1       1.13925    0.47771    0.40341   1.00
H1       1.19375    0.45241    0.36486   1.00
H1       1.06740    0.47926    0.40265   1.00
H1       1.26556    0.45064    0.36577   1.00
H1       1.06382    0.35647    0.42649   1.00
C5       1.26880    0.36725    0.47373   1.00
H1       1.19122    0.37586    0.46461   1.00
H1       1.13559    0.35399    0.42660   1.00
H2       1.30099    0.36860    0.46993   1.00
H2       1.26205    0.37984    0.50285   1.00
N1       1.25625    0.32649    0.47192   1.00
C6       1.26144    0.30203    0.44161   1.00
C6       1.23788    0.30644    0.50028   1.00
C6       1.24602    0.26596    0.45058   1.00
C6       1.23104    0.26876    0.48790   1.00
H3       1.27549    0.30991    0.41441   1.00
H3       1.22984    0.31835    0.52841   1.00
H3       1.24576    0.24046    0.43201   1.00
H3       1.21680    0.24587    0.50427   1.00
C4       0.91473    0.18583    0.41573   1.00
C4       0.91527    0.14417    0.41427   1.00
C3       0.92170    0.20654    0.45080   1.00
C3       0.94283    0.12179    0.43533   1.00
C3       0.90811    0.20857    0.38184   1.00
C3       0.88736    0.12313    0.39226   1.00
C2       0.91547    0.27013    0.41802   1.00
C2       0.91466    0.05986    0.41227   1.00
C3       0.92199    0.24785    0.45185   1.00
C3       0.94251    0.08051    0.43425   1.00
C3       0.90848    0.24986    0.38305   1.00
C3a      0.88693    0.08172    0.39109   1.00
H1       0.92659    0.19075    0.47771   1.00
H1       0.96514    0.13625    0.45241   1.00
H1       0.92735    0.26260    0.47926   1.00
H1       0.96423    0.06444    0.45064   1.00
H1       0.90351    0.26618    0.35647   1.00
C5       0.85627    0.06120    0.36725   1.00
H1       0.86539    0.13878    0.37586   1.00
H1       0.90340    0.19441    0.35399   1.00
H2       0.86007    0.02901    0.36860   1.00
H2       0.82715    0.06795    0.37984   1.00
N1       0.85808    0.07375    0.32649   1.00
C6       0.88839    0.06856    0.30203   1.00
C6       0.82972    0.09212    0.30644   1.00
C6       0.87942    0.08398    0.26596   1.00
C6       0.84210    0.09896    0.26876   1.00
H3       0.91559    0.05451    0.30991   1.00
H3       0.80159    0.10016    0.31835   1.00
H3       0.89799    0.08424    0.24046   1.00
H3       0.82573    0.11320    0.24587   1.00
C4       0.91573    0.41473    0.18583   1.00
C4       0.91427    0.41527    0.14417   1.00
C3       0.95080    0.42170    0.20654   1.00
C3       0.93533    0.44283    0.12179   1.00
C3       0.88184    0.40811    0.20857   1.00
C3       0.89226    0.38736    0.12313   1.00
C2       0.91802    0.41547    0.27013   1.00
C2       0.91227    0.41466    0.05986   1.00
C3       0.95185    0.42199    0.24785   1.00
C3       0.93425    0.44251    0.08051   1.00
C3       0.88305    0.40848    0.24986   1.00
C3a      0.89109    0.38693    0.08172   1.00
H1       0.97771    0.42659    0.19075   1.00
H1       0.95241    0.46514    0.13625   1.00
H1       0.97926    0.42735    0.26260   1.00
H1       0.95064    0.46423    0.06444   1.00
H1       0.85647    0.40351    0.26618   1.00
C5       0.86725    0.35627    0.06120   1.00
H1       0.87586    0.36539    0.13878   1.00
H1       0.85399    0.40340    0.19441   1.00
H2       0.86860    0.36007    0.02901   1.00
H2       0.87984    0.32715    0.06795   1.00
N1       0.82649    0.35808    0.07375   1.00
C6       0.80203    0.38839    0.06856   1.00
C6       0.80644    0.32972    0.09212   1.00
C6       0.76596    0.37942    0.08398   1.00
C6       0.76876    0.34210    0.09896   1.00
H3       0.80991    0.41559    0.05451   1.00
H3       0.81835    0.30159    0.10016   1.00
H3       0.74046    0.39799    0.08424   1.00
H3       0.74587    0.32573    0.11320   1.00
