data_IRMOF10_SG202_interpen_Ligand1cp_label_d.

_audit_creation_method             'generated by an auxiliary program of Tobunporous'

_symmetry_space_group_name_H-M     'P 1'
_symmetry_Int_Tables_number        1
_symmetry_cell_setting             triclinic

_cell_length_a                    34.2800
_cell_length_b                    34.2800
_cell_length_c                    34.2800
_cell_angle_alpha                 90.0000
_cell_angle_beta                  90.0000
_cell_angle_gamma                 90.0000

loop_
_atom_site_label
_atom_site_fract_x
_atom_site_fract_y
_atom_site_fract_z
_atom_site_occupancy
O1       0.75000    0.75000    0.75000   1.00
Zn1      0.71720    0.78280    0.78280   1.00
Zn1      0.78280    0.71720    0.78280   1.00
Zn1      0.78280    0.78280    0.71720   1.00
Zn1      0.71720    0.71720    0.71720   1.00
O2       0.72650    0.77350    0.83820   1.00
O2       0.72650    0.83820    0.77350   1.00
O2       0.66180    0.77350    0.77350   1.00
O2       0.77350    0.72650    0.83820   1.00
O2       0.83820    0.72650    0.77350   1.00
O2       0.77350    0.66180    0.77350   1.00
O2       0.77350    0.83820    0.72650   1.00
O2       0.83820    0.77350    0.72650   1.00
O2       0.77350    0.77350    0.66180   1.00
O2       0.66180    0.72650    0.72650   1.00
O2       0.72650    0.66180    0.72650   1.00
O2       0.72650    0.72650    0.66180   1.00
C1       0.75000    0.75000    0.85520   1.00
C1       0.75000    0.85520    0.75000   1.00
C1       0.64480    0.75000    0.75000   1.00
C1       0.85520    0.75000    0.75000   1.00
C1       0.75000    0.64480    0.75000   1.00
C1       0.75000    0.75000    0.64480   1.00
O1       0.25000    0.25000    0.75000   1.00
Zn1      0.21720    0.28280    0.78280   1.00
Zn1      0.28280    0.21720    0.78280   1.00
Zn1      0.28280    0.28280    0.71720   1.00
Zn1      0.21720    0.21720    0.71720   1.00
O2       0.22650    0.27350    0.83820   1.00
O2       0.22650    0.33820    0.77350   1.00
O2       0.16180    0.27350    0.77350   1.00
O2       0.27350    0.22650    0.83820   1.00
O2       0.33820    0.22650    0.77350   1.00
O2       0.27350    0.16180    0.77350   1.00
O2       0.27350    0.33820    0.72650   1.00
O2       0.33820    0.27350    0.72650   1.00
O2       0.27350    0.27350    0.66180   1.00
O2       0.16180    0.22650    0.72650   1.00
O2       0.22650    0.16180    0.72650   1.00
O2       0.22650    0.22650    0.66180   1.00
C1       0.25000    0.25000    0.85520   1.00
C1       0.25000    0.35520    0.75000   1.00
C1       0.14480    0.25000    0.75000   1.00
C1       0.35520    0.25000    0.75000   1.00
C1       0.25000    0.14480    0.75000   1.00
C1       0.25000    0.25000    0.64480   1.00
O1       0.25000    0.75000    0.25000   1.00
Zn1      0.21720    0.78280    0.28280   1.00
Zn1      0.28280    0.71720    0.28280   1.00
Zn1      0.28280    0.78280    0.21720   1.00
Zn1      0.21720    0.71720    0.21720   1.00
O2       0.22650    0.77350    0.33820   1.00
O2       0.22650    0.83820    0.27350   1.00
O2       0.16180    0.77350    0.27350   1.00
O2       0.27350    0.72650    0.33820   1.00
O2       0.33820    0.72650    0.27350   1.00
O2       0.27350    0.66180    0.27350   1.00
O2       0.27350    0.83820    0.22650   1.00
O2       0.33820    0.77350    0.22650   1.00
O2       0.27350    0.77350    0.16180   1.00
O2       0.16180    0.72650    0.22650   1.00
O2       0.22650    0.66180    0.22650   1.00
O2       0.22650    0.72650    0.16180   1.00
C1       0.25000    0.75000    0.35520   1.00
C1       0.25000    0.85520    0.25000   1.00
C1       0.14480    0.75000    0.25000   1.00
C1       0.35520    0.75000    0.25000   1.00
C1       0.25000    0.64480    0.25000   1.00
C1       0.25000    0.75000    0.14480   1.00
O1       0.75000    0.25000    0.25000   1.00
Zn1      0.71720    0.28280    0.28280   1.00
Zn1      0.78280    0.21720    0.28280   1.00
Zn1      0.78280    0.28280    0.21720   1.00
Zn1      0.71720    0.21720    0.21720   1.00
O2       0.72650    0.27350    0.33820   1.00
O2       0.72650    0.33820    0.27350   1.00
O2       0.66180    0.27350    0.27350   1.00
O2       0.77350    0.22650    0.33820   1.00
O2       0.83820    0.22650    0.27350   1.00
O2       0.77350    0.16180    0.27350   1.00
O2       0.77350    0.33820    0.22650   1.00
O2       0.83820    0.27350    0.22650   1.00
O2       0.77350    0.27350    0.16180   1.00
O2       0.66180    0.22650    0.22650   1.00
O2       0.72650    0.16180    0.22650   1.00
O2       0.72650    0.22650    0.16180   1.00
C1       0.75000    0.25000    0.35520   1.00
C1       0.75000    0.35520    0.25000   1.00
C1       0.64480    0.25000    0.25000   1.00
C1       0.85520    0.25000    0.25000   1.00
C1       0.75000    0.14480    0.25000   1.00
C1       0.75000    0.25000    0.14480   1.00
O1       0.25000    0.25000    0.25000   1.00
Zn1      0.28280    0.21720    0.21720   1.00
Zn1      0.21720    0.28280    0.21720   1.00
Zn1      0.21720    0.21720    0.28280   1.00
Zn1      0.28280    0.28280    0.28280   1.00
O2       0.27350    0.22650    0.16180   1.00
O2       0.27350    0.16180    0.22650   1.00
O2       0.33820    0.22650    0.22650   1.00
O2       0.22650    0.27350    0.16180   1.00
O2       0.16180    0.27350    0.22650   1.00
O2       0.22650    0.33820    0.22650   1.00
O2       0.22650    0.16180    0.27350   1.00
O2       0.16180    0.22650    0.27350   1.00
O2       0.22650    0.22650    0.33820   1.00
O2       0.33820    0.27350    0.27350   1.00
O2       0.27350    0.33820    0.27350   1.00
O2       0.27350    0.27350    0.33820   1.00
C1       0.25000    0.25000    0.14480   1.00
C1       0.25000    0.14480    0.25000   1.00
C1       0.35520    0.25000    0.25000   1.00
C1       0.14480    0.25000    0.25000   1.00
C1       0.25000    0.35520    0.25000   1.00
C1       0.25000    0.25000    0.35520   1.00
O1       0.75000    0.75000    0.25000   1.00
Zn1      0.78280    0.71720    0.21720   1.00
Zn1      0.71720    0.78280    0.21720   1.00
Zn1      0.71720    0.71720    0.28280   1.00
Zn1      0.78280    0.78280    0.28280   1.00
O2       0.77350    0.72650    0.16180   1.00
O2       0.77350    0.66180    0.22650   1.00
O2       0.83820    0.72650    0.22650   1.00
O2       0.72650    0.77350    0.16180   1.00
O2       0.66180    0.77350    0.22650   1.00
O2       0.72650    0.83820    0.22650   1.00
O2       0.72650    0.66180    0.27350   1.00
O2       0.66180    0.72650    0.27350   1.00
O2       0.72650    0.72650    0.33820   1.00
O2       0.83820    0.77350    0.27350   1.00
O2       0.77350    0.83820    0.27350   1.00
O2       0.77350    0.77350    0.33820   1.00
C1       0.75000    0.75000    0.14480   1.00
C1       0.75000    0.64480    0.25000   1.00
C1       0.85520    0.75000    0.25000   1.00
C1       0.64480    0.75000    0.25000   1.00
C1       0.75000    0.85520    0.25000   1.00
C1       0.75000    0.75000    0.35520   1.00
O1       0.75000    0.25000    0.75000   1.00
Zn1      0.78280    0.21720    0.71720   1.00
Zn1      0.71720    0.28280    0.71720   1.00
Zn1      0.71720    0.21720    0.78280   1.00
Zn1      0.78280    0.28280    0.78280   1.00
O2       0.77350    0.22650    0.66180   1.00
O2       0.77350    0.16180    0.72650   1.00
O2       0.83820    0.22650    0.72650   1.00
O2       0.72650    0.27350    0.66180   1.00
O2       0.66180    0.27350    0.72650   1.00
O2       0.72650    0.33820    0.72650   1.00
O2       0.72650    0.16180    0.77350   1.00
O2       0.66180    0.22650    0.77350   1.00
O2       0.72650    0.22650    0.83820   1.00
O2       0.83820    0.27350    0.77350   1.00
O2       0.77350    0.33820    0.77350   1.00
O2       0.77350    0.27350    0.83820   1.00
C1       0.75000    0.25000    0.64480   1.00
C1       0.75000    0.14480    0.75000   1.00
C1       0.85520    0.25000    0.75000   1.00
C1       0.64480    0.25000    0.75000   1.00
C1       0.75000    0.35520    0.75000   1.00
C1       0.75000    0.25000    0.85520   1.00
O1       0.25000    0.75000    0.75000   1.00
Zn1      0.28280    0.71720    0.71720   1.00
Zn1      0.21720    0.78280    0.71720   1.00
Zn1      0.21720    0.71720    0.78280   1.00
Zn1      0.28280    0.78280    0.78280   1.00
O2       0.27350    0.72650    0.66180   1.00
O2       0.27350    0.66180    0.72650   1.00
O2       0.33820    0.72650    0.72650   1.00
O2       0.22650    0.77350    0.66180   1.00
O2       0.16180    0.77350    0.72650   1.00
O2       0.22650    0.83820    0.72650   1.00
O2       0.22650    0.66180    0.77350   1.00
O2       0.16180    0.72650    0.77350   1.00
O2       0.22650    0.72650    0.83820   1.00
O2       0.33820    0.77350    0.77350   1.00
O2       0.27350    0.83820    0.77350   1.00
O2       0.27350    0.77350    0.83820   1.00
C1       0.25000    0.75000    0.64480   1.00
C1       0.25000    0.64480    0.75000   1.00
C1       0.35520    0.75000    0.75000   1.00
C1       0.14480    0.75000    0.75000   1.00
C1       0.25000    0.85520    0.75000   1.00
C1       0.25000    0.75000    0.85520   1.00
O1       0.91500    0.91500    0.91500   1.00
Zn1      0.88220    0.94780    0.94780   1.00
Zn1      0.94780    0.88220    0.94780   1.00
Zn1      0.94780    0.94780    0.88220   1.00
Zn1      0.88220    0.88220    0.88220   1.00
O2       0.89150    0.93850    1.00320   1.00
O2       0.89150    1.00320    0.93850   1.00
O2       0.82680    0.93850    0.93850   1.00
O2       0.93850    0.89150    1.00320   1.00
O2       1.00320    0.89150    0.93850   1.00
O2       0.93850    0.82680    0.93850   1.00
O2       0.93850    1.00320    0.89150   1.00
O2       1.00320    0.93850    0.89150   1.00
O2       0.93850    0.93850    0.82680   1.00
O2       0.82680    0.89150    0.89150   1.00
O2       0.89150    0.82680    0.89150   1.00
O2       0.89150    0.89150    0.82680   1.00
C1       0.91500    0.91500    1.02020   1.00
C1       0.91500    1.02020    0.91500   1.00
C1       0.80980    0.91500    0.91500   1.00
C1       1.02020    0.91500    0.91500   1.00
C1       0.91500    0.80980    0.91500   1.00
C1       0.91500    0.91500    0.80980   1.00
O1       0.41500    0.41500    0.91500   1.00
Zn1      0.38220    0.44780    0.94780   1.00
Zn1      0.44780    0.38220    0.94780   1.00
Zn1      0.44780    0.44780    0.88220   1.00
Zn1      0.38220    0.38220    0.88220   1.00
O2       0.39150    0.43850    1.00320   1.00
O2       0.39150    0.50320    0.93850   1.00
O2       0.32680    0.43850    0.93850   1.00
O2       0.43850    0.39150    1.00320   1.00
O2       0.50320    0.39150    0.93850   1.00
O2       0.43850    0.32680    0.93850   1.00
O2       0.43850    0.50320    0.89150   1.00
O2       0.50320    0.43850    0.89150   1.00
O2       0.43850    0.43850    0.82680   1.00
O2       0.32680    0.39150    0.89150   1.00
O2       0.39150    0.32680    0.89150   1.00
O2       0.39150    0.39150    0.82680   1.00
C1       0.41500    0.41500    1.02020   1.00
C1       0.41500    0.52020    0.91500   1.00
C1       0.30980    0.41500    0.91500   1.00
C1       0.52020    0.41500    0.91500   1.00
C1       0.41500    0.30980    0.91500   1.00
C1       0.41500    0.41500    0.80980   1.00
O1       0.41500    0.91500    0.41500   1.00
Zn1      0.38220    0.94780    0.44780   1.00
Zn1      0.44780    0.88220    0.44780   1.00
Zn1      0.44780    0.94780    0.38220   1.00
Zn1      0.38220    0.88220    0.38220   1.00
O2       0.39150    0.93850    0.50320   1.00
O2       0.39150    1.00320    0.43850   1.00
O2       0.32680    0.93850    0.43850   1.00
O2       0.43850    0.89150    0.50320   1.00
O2       0.50320    0.89150    0.43850   1.00
O2       0.43850    0.82680    0.43850   1.00
O2       0.43850    1.00320    0.39150   1.00
O2       0.50320    0.93850    0.39150   1.00
O2       0.43850    0.93850    0.32680   1.00
O2       0.32680    0.89150    0.39150   1.00
O2       0.39150    0.82680    0.39150   1.00
O2       0.39150    0.89150    0.32680   1.00
C1       0.41500    0.91500    0.52020   1.00
C1       0.41500    1.02020    0.41500   1.00
C1       0.30980    0.91500    0.41500   1.00
C1       0.52020    0.91500    0.41500   1.00
C1       0.41500    0.80980    0.41500   1.00
C1       0.41500    0.91500    0.30980   1.00
O1       0.91500    0.41500    0.41500   1.00
Zn1      0.88220    0.44780    0.44780   1.00
Zn1      0.94780    0.38220    0.44780   1.00
Zn1      0.94780    0.44780    0.38220   1.00
Zn1      0.88220    0.38220    0.38220   1.00
O2       0.89150    0.43850    0.50320   1.00
O2       0.89150    0.50320    0.43850   1.00
O2       0.82680    0.43850    0.43850   1.00
O2       0.93850    0.39150    0.50320   1.00
O2       1.00320    0.39150    0.43850   1.00
O2       0.93850    0.32680    0.43850   1.00
O2       0.93850    0.50320    0.39150   1.00
O2       1.00320    0.43850    0.39150   1.00
O2       0.93850    0.43850    0.32680   1.00
O2       0.82680    0.39150    0.39150   1.00
O2       0.89150    0.32680    0.39150   1.00
O2       0.89150    0.39150    0.32680   1.00
C1       0.91500    0.41500    0.52020   1.00
C1       0.91500    0.52020    0.41500   1.00
C1       0.80980    0.41500    0.41500   1.00
C1       1.02020    0.41500    0.41500   1.00
C1       0.91500    0.30980    0.41500   1.00
C1       0.91500    0.41500    0.30980   1.00
O1       0.41500    0.41500    0.41500   1.00
Zn1      0.44780    0.38220    0.38220   1.00
Zn1      0.38220    0.44780    0.38220   1.00
Zn1      0.38220    0.38220    0.44780   1.00
Zn1      0.44780    0.44780    0.44780   1.00
O2       0.43850    0.39150    0.32680   1.00
O2       0.43850    0.32680    0.39150   1.00
O2       0.50320    0.39150    0.39150   1.00
O2       0.39150    0.43850    0.32680   1.00
O2       0.32680    0.43850    0.39150   1.00
O2       0.39150    0.50320    0.39150   1.00
O2       0.39150    0.32680    0.43850   1.00
O2       0.32680    0.39150    0.43850   1.00
O2       0.39150    0.39150    0.50320   1.00
O2       0.50320    0.43850    0.43850   1.00
O2       0.43850    0.50320    0.43850   1.00
O2       0.43850    0.43850    0.50320   1.00
C1       0.41500    0.41500    0.30980   1.00
C1       0.41500    0.30980    0.41500   1.00
C1       0.52020    0.41500    0.41500   1.00
C1       0.30980    0.41500    0.41500   1.00
C1       0.41500    0.52020    0.41500   1.00
C1       0.41500    0.41500    0.52020   1.00
O1       0.91500    0.91500    0.41500   1.00
Zn1      0.94780    0.88220    0.38220   1.00
Zn1      0.88220    0.94780    0.38220   1.00
Zn1      0.88220    0.88220    0.44780   1.00
Zn1      0.94780    0.94780    0.44780   1.00
O2       0.93850    0.89150    0.32680   1.00
O2       0.93850    0.82680    0.39150   1.00
O2       1.00320    0.89150    0.39150   1.00
O2       0.89150    0.93850    0.32680   1.00
O2       0.82680    0.93850    0.39150   1.00
O2       0.89150    1.00320    0.39150   1.00
O2       0.89150    0.82680    0.43850   1.00
O2       0.82680    0.89150    0.43850   1.00
O2       0.89150    0.89150    0.50320   1.00
O2       1.00320    0.93850    0.43850   1.00
O2       0.93850    1.00320    0.43850   1.00
O2       0.93850    0.93850    0.50320   1.00
C1       0.91500    0.91500    0.30980   1.00
C1       0.91500    0.80980    0.41500   1.00
C1       1.02020    0.91500    0.41500   1.00
C1       0.80980    0.91500    0.41500   1.00
C1       0.91500    1.02020    0.41500   1.00
C1       0.91500    0.91500    0.52020   1.00
O1       0.91500    0.41500    0.91500   1.00
Zn1      0.94780    0.38220    0.88220   1.00
Zn1      0.88220    0.44780    0.88220   1.00
Zn1      0.88220    0.38220    0.94780   1.00
Zn1      0.94780    0.44780    0.94780   1.00
O2       0.93850    0.39150    0.82680   1.00
O2       0.93850    0.32680    0.89150   1.00
O2       1.00320    0.39150    0.89150   1.00
O2       0.89150    0.43850    0.82680   1.00
O2       0.82680    0.43850    0.89150   1.00
O2       0.89150    0.50320    0.89150   1.00
O2       0.89150    0.32680    0.93850   1.00
O2       0.82680    0.39150    0.93850   1.00
O2       0.89150    0.39150    1.00320   1.00
O2       1.00320    0.43850    0.93850   1.00
O2       0.93850    0.50320    0.93850   1.00
O2       0.93850    0.43850    1.00320   1.00
C1       0.91500    0.41500    0.80980   1.00
C1       0.91500    0.30980    0.91500   1.00
C1       1.02020    0.41500    0.91500   1.00
C1       0.80980    0.41500    0.91500   1.00
C1       0.91500    0.52020    0.91500   1.00
C1       0.91500    0.41500    1.02020   1.00
O1       0.41500    0.91500    0.91500   1.00
Zn1      0.44780    0.88220    0.88220   1.00
Zn1      0.38220    0.94780    0.88220   1.00
Zn1      0.38220    0.88220    0.94780   1.00
Zn1      0.44780    0.94780    0.94780   1.00
O2       0.43850    0.89150    0.82680   1.00
O2       0.43850    0.82680    0.89150   1.00
O2       0.50320    0.89150    0.89150   1.00
O2       0.39150    0.93850    0.82680   1.00
O2       0.32680    0.93850    0.89150   1.00
O2       0.39150    1.00320    0.89150   1.00
O2       0.39150    0.82680    0.93850   1.00
O2       0.32680    0.89150    0.93850   1.00
O2       0.39150    0.89150    1.00320   1.00
O2       0.50320    0.93850    0.93850   1.00
O2       0.43850    1.00320    0.93850   1.00
O2       0.43850    0.93850    1.00320   1.00
C1       0.41500    0.91500    0.80980   1.00
C1       0.41500    0.80980    0.91500   1.00
C1       0.52020    0.91500    0.91500   1.00
C1       0.30980    0.91500    0.91500   1.00
C1       0.41500    1.02020    0.91500   1.00
C1       0.41500    0.91500    1.02020   1.00
C2       0.74855    0.75262    0.89757   1.00
C3a      0.74924    0.78753    0.91884   1.00
H1       0.74932    0.81530    0.90369   1.00
C3a      0.74844    0.71667    0.91704   1.00
H1       0.74791    0.68970    0.90051   1.00
C3b      0.74982    0.78688    0.95938   1.00
C5       0.75055    0.82496    0.98144   1.00
H2       0.77712    0.82660    0.99984   1.00
H2       0.75054    0.85057    0.96161   1.00
H2       0.72456    0.82717    1.00060   1.00
C3b      0.74901    0.71524    0.95756   1.00
C5       0.74887    0.67609    0.97767   1.00
H2       0.72283    0.67349    0.99670   1.00
H2       0.74830    0.65152    0.95655   1.00
H2       0.77539    0.67292    0.99594   1.00
C4       0.74970    0.75054    0.97873   1.00
C4       0.75030    0.74946    1.02127   1.00
C3b      0.78642    0.74855    1.04101   1.00
C5       0.82474    0.74867    1.01937   1.00
H2       0.82718    0.77540    1.00129   1.00
H2       0.85012    0.74787    1.03949   1.00
H2       0.82659    0.72284    0.99995   1.00
C3b      0.71476    0.74933    1.04204   1.00
C5       0.67584    0.75029    1.02152   1.00
H2       0.67287    0.72452    1.00217   1.00
H2       0.65103    0.75004    1.04235   1.00
H2       0.67346    0.77707    1.00350   1.00
C3a      0.78660    0.74752    1.08155   1.00
H1       0.81420    0.74682    1.09700   1.00
C3a      0.71572    0.74829    1.08257   1.00
H1       0.68857    0.74818    1.09881   1.00
C2       0.75145    0.74738    1.10243   1.00
C2       0.75262    0.89757    0.74855   1.00
C3a      0.78753    0.91884    0.74924   1.00
H1       0.81530    0.90369    0.74932   1.00
C3a      0.71667    0.91704    0.74844   1.00
H1       0.68970    0.90051    0.74791   1.00
C3b      0.78688    0.95938    0.74982   1.00
C5       0.82496    0.98144    0.75055   1.00
H2       0.82660    0.99984    0.77712   1.00
H2       0.85057    0.96161    0.75054   1.00
H2       0.82717    1.00060    0.72456   1.00
C3b      0.71524    0.95756    0.74901   1.00
C5       0.67609    0.97767    0.74887   1.00
H2       0.67349    0.99670    0.72283   1.00
H2       0.65152    0.95655    0.74830   1.00
H2       0.67292    0.99594    0.77539   1.00
C4       0.75054    0.97873    0.74970   1.00
C4       0.74946    1.02127    0.75030   1.00
C3b      0.74855    1.04101    0.78642   1.00
C5       0.74867    1.01937    0.82474   1.00
H2       0.77540    1.00129    0.82718   1.00
H2       0.74787    1.03949    0.85012   1.00
H2       0.72284    0.99995    0.82659   1.00
C3b      0.74933    1.04204    0.71476   1.00
C5       0.75029    1.02152    0.67584   1.00
H2       0.72452    1.00217    0.67287   1.00
H2       0.75004    1.04235    0.65103   1.00
H2       0.77707    1.00350    0.67346   1.00
C3a      0.74752    1.08155    0.78660   1.00
H1       0.74682    1.09700    0.81420   1.00
C3a      0.74829    1.08257    0.71572   1.00
H1       0.74818    1.09881    0.68857   1.00
C2       0.74738    1.10243    0.75145   1.00
C2       0.60243    0.74855    0.74738   1.00
C3a      0.58116    0.74924    0.71247   1.00
H1       0.59631    0.74932    0.68470   1.00
C3a      0.58296    0.74844    0.78333   1.00
H1       0.59949    0.74791    0.81030   1.00
C3b      0.54062    0.74982    0.71312   1.00
C5       0.51856    0.75055    0.67504   1.00
H2       0.50016    0.77712    0.67340   1.00
H2       0.53839    0.75054    0.64943   1.00
H2       0.49940    0.72456    0.67283   1.00
C3b      0.54244    0.74901    0.78476   1.00
C5       0.52233    0.74887    0.82391   1.00
H2       0.50330    0.72283    0.82651   1.00
H2       0.54345    0.74830    0.84848   1.00
H2       0.50406    0.77539    0.82708   1.00
C4       0.52127    0.74970    0.74946   1.00
C4       0.47873    0.75030    0.75054   1.00
C3b      0.45899    0.78642    0.75145   1.00
C5       0.48063    0.82474    0.75133   1.00
H2       0.49871    0.82718    0.72460   1.00
H2       0.46051    0.85012    0.75213   1.00
H2       0.50005    0.82659    0.77716   1.00
C3b      0.45796    0.71476    0.75067   1.00
C5       0.47848    0.67584    0.74971   1.00
H2       0.49783    0.67287    0.77548   1.00
H2       0.45765    0.65103    0.74996   1.00
H2       0.49650    0.67346    0.72293   1.00
C3a      0.41845    0.78660    0.75248   1.00
H1       0.40300    0.81420    0.75318   1.00
C3a      0.41743    0.71572    0.75171   1.00
H1       0.40119    0.68857    0.75182   1.00
C2       0.39757    0.75145    0.75262   1.00
C2       0.89757    0.74855    0.75262   1.00
C3a      0.91884    0.74924    0.78753   1.00
H1       0.90369    0.74932    0.81530   1.00
C3a      0.91704    0.74844    0.71667   1.00
H1       0.90051    0.74791    0.68970   1.00
C3b      0.95938    0.74982    0.78688   1.00
C5       0.98144    0.75055    0.82496   1.00
H2       0.99984    0.77712    0.82660   1.00
H2       0.96161    0.75054    0.85057   1.00
H2       1.00060    0.72456    0.82717   1.00
C3b      0.95756    0.74901    0.71524   1.00
C5       0.97767    0.74887    0.67609   1.00
H2       0.99670    0.72283    0.67349   1.00
H2       0.95655    0.74830    0.65152   1.00
H2       0.99594    0.77539    0.67292   1.00
C4       0.97873    0.74970    0.75054   1.00
C4       1.02127    0.75030    0.74946   1.00
C3b      1.04101    0.78642    0.74855   1.00
C5       1.01937    0.82474    0.74867   1.00
H2       1.00129    0.82718    0.77540   1.00
H2       1.03949    0.85012    0.74787   1.00
H2       0.99995    0.82659    0.72284   1.00
C3b      1.04204    0.71476    0.74933   1.00
C5       1.02152    0.67584    0.75029   1.00
H2       1.00217    0.67287    0.72452   1.00
H2       1.04235    0.65103    0.75004   1.00
H2       1.00350    0.67346    0.77707   1.00
C3a      1.08155    0.78660    0.74752   1.00
H1       1.09700    0.81420    0.74682   1.00
C3a      1.08257    0.71572    0.74829   1.00
H1       1.09881    0.68857    0.74818   1.00
C2       1.10243    0.75145    0.74738   1.00
C2       0.74738    0.60243    0.74855   1.00
C3a      0.71247    0.58116    0.74924   1.00
H1       0.68470    0.59631    0.74932   1.00
C3a      0.78333    0.58296    0.74844   1.00
H1       0.81030    0.59949    0.74791   1.00
C3b      0.71312    0.54062    0.74982   1.00
C5       0.67504    0.51856    0.75055   1.00
H2       0.67340    0.50016    0.77712   1.00
H2       0.64943    0.53839    0.75054   1.00
H2       0.67283    0.49940    0.72456   1.00
C3b      0.78476    0.54244    0.74901   1.00
C5       0.82391    0.52233    0.74887   1.00
H2       0.82651    0.50330    0.72283   1.00
H2       0.84848    0.54345    0.74830   1.00
H2       0.82708    0.50406    0.77539   1.00
C4       0.74946    0.52127    0.74970   1.00
C4       0.75054    0.47873    0.75030   1.00
C3b      0.75145    0.45899    0.78642   1.00
C5       0.75133    0.48063    0.82474   1.00
H2       0.72460    0.49871    0.82718   1.00
H2       0.75213    0.46051    0.85012   1.00
H2       0.77716    0.50005    0.82659   1.00
C3b      0.75067    0.45796    0.71476   1.00
C5       0.74971    0.47848    0.67584   1.00
H2       0.77548    0.49783    0.67287   1.00
H2       0.74996    0.45765    0.65103   1.00
H2       0.72293    0.49650    0.67346   1.00
C3a      0.75248    0.41845    0.78660   1.00
H1       0.75318    0.40300    0.81420   1.00
C3a      0.75171    0.41743    0.71572   1.00
H1       0.75182    0.40119    0.68857   1.00
C2       0.75262    0.39757    0.75145   1.00
C2       0.74855    0.74738    0.60243   1.00
C3a      0.74924    0.71247    0.58116   1.00
H1       0.74932    0.68470    0.59631   1.00
C3a      0.74844    0.78333    0.58296   1.00
H1       0.74791    0.81030    0.59949   1.00
C3b      0.74982    0.71312    0.54062   1.00
C5       0.75055    0.67504    0.51856   1.00
H2       0.77712    0.67340    0.50016   1.00
H2       0.75054    0.64943    0.53839   1.00
H2       0.72456    0.67283    0.49940   1.00
C3b      0.74901    0.78476    0.54244   1.00
C5       0.74887    0.82391    0.52233   1.00
H2       0.72283    0.82651    0.50330   1.00
H2       0.74830    0.84848    0.54345   1.00
H2       0.77539    0.82708    0.50406   1.00
C4       0.74970    0.74946    0.52127   1.00
C4       0.75030    0.75054    0.47873   1.00
C3b      0.78642    0.75145    0.45899   1.00
C5       0.82474    0.75133    0.48063   1.00
H2       0.82718    0.72460    0.49871   1.00
H2       0.85012    0.75213    0.46051   1.00
H2       0.82659    0.77716    0.50005   1.00
C3b      0.71476    0.75067    0.45796   1.00
C5       0.67584    0.74971    0.47848   1.00
H2       0.67287    0.77548    0.49783   1.00
H2       0.65103    0.74996    0.45765   1.00
H2       0.67346    0.72293    0.49650   1.00
C3a      0.78660    0.75248    0.41845   1.00
H1       0.81420    0.75318    0.40300   1.00
C3a      0.71572    0.75171    0.41743   1.00
H1       0.68857    0.75182    0.40119   1.00
C2       0.75145    0.75262    0.39757   1.00
C2       0.24855    0.25262    0.89757   1.00
C3a      0.24924    0.28753    0.91884   1.00
H1       0.24932    0.31530    0.90369   1.00
C3a      0.24844    0.21667    0.91704   1.00
H1       0.24791    0.18970    0.90051   1.00
C3b      0.24982    0.28688    0.95938   1.00
C5       0.25055    0.32496    0.98144   1.00
H2       0.27712    0.32660    0.99984   1.00
H2       0.25054    0.35057    0.96161   1.00
H2       0.22456    0.32717    1.00060   1.00
C3b      0.24901    0.21524    0.95756   1.00
C5       0.24887    0.17609    0.97767   1.00
H2       0.22283    0.17349    0.99670   1.00
H2       0.24830    0.15152    0.95655   1.00
H2       0.27539    0.17292    0.99594   1.00
C4       0.24970    0.25054    0.97873   1.00
C4       0.25030    0.24946    1.02127   1.00
C3b      0.28642    0.24855    1.04101   1.00
C5       0.32474    0.24867    1.01937   1.00
H2       0.32718    0.27540    1.00129   1.00
H2       0.35012    0.24787    1.03949   1.00
H2       0.32659    0.22284    0.99995   1.00
C3b      0.21476    0.24933    1.04204   1.00
C5       0.17584    0.25029    1.02152   1.00
H2       0.17287    0.22452    1.00217   1.00
H2       0.15103    0.25004    1.04235   1.00
H2       0.17346    0.27707    1.00350   1.00
C3a      0.28660    0.24752    1.08155   1.00
H1       0.31420    0.24682    1.09700   1.00
C3a      0.21572    0.24829    1.08257   1.00
H1       0.18857    0.24818    1.09881   1.00
C2       0.25145    0.24738    1.10243   1.00
C2       0.25262    0.39757    0.74855   1.00
C3a      0.28753    0.41884    0.74924   1.00
H1       0.31530    0.40369    0.74932   1.00
C3a      0.21667    0.41704    0.74844   1.00
H1       0.18970    0.40051    0.74791   1.00
C3b      0.28688    0.45938    0.74982   1.00
C5       0.32496    0.48144    0.75055   1.00
H2       0.32660    0.49984    0.77712   1.00
H2       0.35057    0.46161    0.75054   1.00
H2       0.32717    0.50060    0.72456   1.00
C3b      0.21524    0.45756    0.74901   1.00
C5       0.17609    0.47767    0.74887   1.00
H2       0.17349    0.49670    0.72283   1.00
H2       0.15152    0.45655    0.74830   1.00
H2       0.17292    0.49594    0.77539   1.00
C4       0.25054    0.47873    0.74970   1.00
C4       0.24946    0.52127    0.75030   1.00
C3b      0.24855    0.54101    0.78642   1.00
C5       0.24867    0.51937    0.82474   1.00
H2       0.27540    0.50129    0.82718   1.00
H2       0.24787    0.53949    0.85012   1.00
H2       0.22284    0.49995    0.82659   1.00
C3b      0.24933    0.54204    0.71476   1.00
C5       0.25029    0.52152    0.67584   1.00
H2       0.22452    0.50217    0.67287   1.00
H2       0.25004    0.54235    0.65103   1.00
H2       0.27707    0.50350    0.67346   1.00
C3a      0.24752    0.58155    0.78660   1.00
H1       0.24682    0.59700    0.81420   1.00
C3a      0.24829    0.58257    0.71572   1.00
H1       0.24818    0.59881    0.68857   1.00
C2       0.24738    0.60243    0.75145   1.00
C2       0.10243    0.24855    0.74738   1.00
C3a      0.08116    0.24924    0.71247   1.00
H1       0.09631    0.24932    0.68470   1.00
C3a      0.08296    0.24844    0.78333   1.00
H1       0.09949    0.24791    0.81030   1.00
C3b      0.04062    0.24982    0.71312   1.00
C5       0.01856    0.25055    0.67504   1.00
H2       0.00016    0.27712    0.67340   1.00
H2       0.03839    0.25054    0.64943   1.00
H2       -0.00060   0.22456    0.67283   1.00
C3b      0.04244    0.24901    0.78476   1.00
C5       0.02233    0.24887    0.82391   1.00
H2       0.00330    0.22283    0.82651   1.00
H2       0.04345    0.24830    0.84848   1.00
H2       0.00406    0.27539    0.82708   1.00
C4       0.02127    0.24970    0.74946   1.00
C4       -0.02127   0.25030    0.75054   1.00
C3b      -0.04101   0.28642    0.75145   1.00
C5       -0.01937   0.32474    0.75133   1.00
H2       -0.00129   0.32718    0.72460   1.00
H2       -0.03949   0.35012    0.75213   1.00
H2       0.00005    0.32659    0.77716   1.00
C3b      -0.04204   0.21476    0.75067   1.00
C5       -0.02152   0.17584    0.74971   1.00
H2       -0.00217   0.17287    0.77548   1.00
H2       -0.04235   0.15103    0.74996   1.00
H2       -0.00350   0.17346    0.72293   1.00
C3a      -0.08155   0.28660    0.75248   1.00
H1       -0.09700   0.31420    0.75318   1.00
C3a      -0.08257   0.21572    0.75171   1.00
H1       -0.09881   0.18857    0.75182   1.00
C2       -0.10243   0.25145    0.75262   1.00
C2       0.39757    0.24855    0.75262   1.00
C3a      0.41884    0.24924    0.78753   1.00
H1       0.40369    0.24932    0.81530   1.00
C3a      0.41704    0.24844    0.71667   1.00
H1       0.40051    0.24791    0.68970   1.00
C3b      0.45938    0.24982    0.78688   1.00
C5       0.48144    0.25055    0.82496   1.00
H2       0.49984    0.27712    0.82660   1.00
H2       0.46161    0.25054    0.85057   1.00
H2       0.50060    0.22456    0.82717   1.00
C3b      0.45756    0.24901    0.71524   1.00
C5       0.47767    0.24887    0.67609   1.00
H2       0.49670    0.22283    0.67349   1.00
H2       0.45655    0.24830    0.65152   1.00
H2       0.49594    0.27539    0.67292   1.00
C4       0.47873    0.24970    0.75054   1.00
C4       0.52127    0.25030    0.74946   1.00
C3b      0.54101    0.28642    0.74855   1.00
C5       0.51937    0.32474    0.74867   1.00
H2       0.50129    0.32718    0.77540   1.00
H2       0.53949    0.35012    0.74787   1.00
H2       0.49995    0.32659    0.72284   1.00
C3b      0.54204    0.21476    0.74933   1.00
C5       0.52152    0.17584    0.75029   1.00
H2       0.50217    0.17287    0.72452   1.00
H2       0.54235    0.15103    0.75004   1.00
H2       0.50350    0.17346    0.77707   1.00
C3a      0.58155    0.28660    0.74752   1.00
H1       0.59700    0.31420    0.74682   1.00
C3a      0.58257    0.21572    0.74829   1.00
H1       0.59881    0.18857    0.74818   1.00
C2       0.60243    0.25145    0.74738   1.00
C2       0.24738    0.10243    0.74855   1.00
C3a      0.21247    0.08116    0.74924   1.00
H1       0.18470    0.09631    0.74932   1.00
C3a      0.28333    0.08296    0.74844   1.00
H1       0.31030    0.09949    0.74791   1.00
C3b      0.21312    0.04062    0.74982   1.00
C5       0.17504    0.01856    0.75055   1.00
H2       0.17340    0.00016    0.77712   1.00
H2       0.14943    0.03839    0.75054   1.00
H2       0.17283    -0.00060   0.72456   1.00
C3b      0.28476    0.04244    0.74901   1.00
C5       0.32391    0.02233    0.74887   1.00
H2       0.32651    0.00330    0.72283   1.00
H2       0.34848    0.04345    0.74830   1.00
H2       0.32708    0.00406    0.77539   1.00
C4       0.24946    0.02127    0.74970   1.00
C4       0.25054    -0.02127   0.75030   1.00
C3b      0.25145    -0.04101   0.78642   1.00
C5       0.25133    -0.01937   0.82474   1.00
H2       0.22460    -0.00129   0.82718   1.00
H2       0.25213    -0.03949   0.85012   1.00
H2       0.27716    0.00005    0.82659   1.00
C3b      0.25067    -0.04204   0.71476   1.00
C5       0.24971    -0.02152   0.67584   1.00
H2       0.27548    -0.00217   0.67287   1.00
H2       0.24996    -0.04235   0.65103   1.00
H2       0.22293    -0.00350   0.67346   1.00
C3a      0.25248    -0.08155   0.78660   1.00
H1       0.25318    -0.09700   0.81420   1.00
C3a      0.25171    -0.08257   0.71572   1.00
H1       0.25182    -0.09881   0.68857   1.00
C2       0.25262    -0.10243   0.75145   1.00
C2       0.24855    0.24738    0.60243   1.00
C3a      0.24924    0.21247    0.58116   1.00
H1       0.24932    0.18470    0.59631   1.00
C3a      0.24844    0.28333    0.58296   1.00
H1       0.24791    0.31030    0.59949   1.00
C3b      0.24982    0.21312    0.54062   1.00
C5       0.25055    0.17504    0.51856   1.00
H2       0.27712    0.17340    0.50016   1.00
H2       0.25054    0.14943    0.53839   1.00
H2       0.22456    0.17283    0.49940   1.00
C3b      0.24901    0.28476    0.54244   1.00
C5       0.24887    0.32391    0.52233   1.00
H2       0.22283    0.32651    0.50330   1.00
H2       0.24830    0.34848    0.54345   1.00
H2       0.27539    0.32708    0.50406   1.00
C4       0.24970    0.24946    0.52127   1.00
C4       0.25030    0.25054    0.47873   1.00
C3b      0.28642    0.25145    0.45899   1.00
C5       0.32474    0.25133    0.48063   1.00
H2       0.32718    0.22460    0.49871   1.00
H2       0.35012    0.25213    0.46051   1.00
H2       0.32659    0.27716    0.50005   1.00
C3b      0.21476    0.25067    0.45796   1.00
C5       0.17584    0.24971    0.47848   1.00
H2       0.17287    0.27548    0.49783   1.00
H2       0.15103    0.24996    0.45765   1.00
H2       0.17346    0.22293    0.49650   1.00
C3a      0.28660    0.25248    0.41845   1.00
H1       0.31420    0.25318    0.40300   1.00
C3a      0.21572    0.25171    0.41743   1.00
H1       0.18857    0.25182    0.40119   1.00
C2       0.25145    0.25262    0.39757   1.00
C2       0.24855    0.75262    0.39757   1.00
C3a      0.24924    0.78753    0.41884   1.00
H1       0.24932    0.81530    0.40369   1.00
C3a      0.24844    0.71667    0.41704   1.00
H1       0.24791    0.68970    0.40051   1.00
C3b      0.24982    0.78688    0.45938   1.00
C5       0.25055    0.82496    0.48144   1.00
H2       0.27712    0.82660    0.49984   1.00
H2       0.25054    0.85057    0.46161   1.00
H2       0.22456    0.82717    0.50060   1.00
C3b      0.24901    0.71524    0.45756   1.00
C5       0.24887    0.67609    0.47767   1.00
H2       0.22283    0.67349    0.49670   1.00
H2       0.24830    0.65152    0.45655   1.00
H2       0.27539    0.67292    0.49594   1.00
C4       0.24970    0.75054    0.47873   1.00
C4       0.25030    0.74946    0.52127   1.00
C3b      0.28642    0.74855    0.54101   1.00
C5       0.32474    0.74867    0.51937   1.00
H2       0.32718    0.77540    0.50129   1.00
H2       0.35012    0.74787    0.53949   1.00
H2       0.32659    0.72284    0.49995   1.00
C3b      0.21476    0.74933    0.54204   1.00
C5       0.17584    0.75029    0.52152   1.00
H2       0.17287    0.72452    0.50217   1.00
H2       0.15103    0.75004    0.54235   1.00
H2       0.17346    0.77707    0.50350   1.00
C3a      0.28660    0.74752    0.58155   1.00
H1       0.31420    0.74682    0.59700   1.00
C3a      0.21572    0.74829    0.58257   1.00
H1       0.18857    0.74818    0.59881   1.00
C2       0.25145    0.74738    0.60243   1.00
C2       0.25262    0.89757    0.24855   1.00
C3a      0.28753    0.91884    0.24924   1.00
H1       0.31530    0.90369    0.24932   1.00
C3a      0.21667    0.91704    0.24844   1.00
H1       0.18970    0.90051    0.24791   1.00
C3b      0.28688    0.95938    0.24982   1.00
C5       0.32496    0.98144    0.25055   1.00
H2       0.32660    0.99984    0.27712   1.00
H2       0.35057    0.96161    0.25054   1.00
H2       0.32717    1.00060    0.22456   1.00
C3b      0.21524    0.95756    0.24901   1.00
C5       0.17609    0.97767    0.24887   1.00
H2       0.17349    0.99670    0.22283   1.00
H2       0.15152    0.95655    0.24830   1.00
H2       0.17292    0.99594    0.27539   1.00
C4       0.25054    0.97873    0.24970   1.00
C4       0.24946    1.02127    0.25030   1.00
C3b      0.24855    1.04101    0.28642   1.00
C5       0.24867    1.01937    0.32474   1.00
H2       0.27540    1.00129    0.32718   1.00
H2       0.24787    1.03949    0.35012   1.00
H2       0.22284    0.99995    0.32659   1.00
C3b      0.24933    1.04204    0.21476   1.00
C5       0.25029    1.02152    0.17584   1.00
H2       0.22452    1.00217    0.17287   1.00
H2       0.25004    1.04235    0.15103   1.00
H2       0.27707    1.00350    0.17346   1.00
C3a      0.24752    1.08155    0.28660   1.00
H1       0.24682    1.09700    0.31420   1.00
C3a      0.24829    1.08257    0.21572   1.00
H1       0.24818    1.09881    0.18857   1.00
C2       0.24738    1.10243    0.25145   1.00
C2       0.10243    0.74855    0.24738   1.00
C3a      0.08116    0.74924    0.21247   1.00
H1       0.09631    0.74932    0.18470   1.00
C3a      0.08296    0.74844    0.28333   1.00
H1       0.09949    0.74791    0.31030   1.00
C3b      0.04062    0.74982    0.21312   1.00
C5       0.01856    0.75055    0.17504   1.00
H2       0.00016    0.77712    0.17340   1.00
H2       0.03839    0.75054    0.14943   1.00
H2       -0.00060   0.72456    0.17283   1.00
C3b      0.04244    0.74901    0.28476   1.00
C5       0.02233    0.74887    0.32391   1.00
H2       0.00330    0.72283    0.32651   1.00
H2       0.04345    0.74830    0.34848   1.00
H2       0.00406    0.77539    0.32708   1.00
C4       0.02127    0.74970    0.24946   1.00
C4       -0.02127   0.75030    0.25054   1.00
C3b      -0.04101   0.78642    0.25145   1.00
C5       -0.01937   0.82474    0.25133   1.00
H2       -0.00129   0.82718    0.22460   1.00
H2       -0.03949   0.85012    0.25213   1.00
H2       0.00005    0.82659    0.27716   1.00
C3b      -0.04204   0.71476    0.25067   1.00
C5       -0.02152   0.67584    0.24971   1.00
H2       -0.00217   0.67287    0.27548   1.00
H2       -0.04235   0.65103    0.24996   1.00
H2       -0.00350   0.67346    0.22293   1.00
C3a      -0.08155   0.78660    0.25248   1.00
H1       -0.09700   0.81420    0.25318   1.00
C3a      -0.08257   0.71572    0.25171   1.00
H1       -0.09881   0.68857    0.25182   1.00
C2       -0.10243   0.75145    0.25262   1.00
C2       0.39757    0.74855    0.25262   1.00
C3a      0.41884    0.74924    0.28753   1.00
H1       0.40369    0.74932    0.31530   1.00
C3a      0.41704    0.74844    0.21667   1.00
H1       0.40051    0.74791    0.18970   1.00
C3b      0.45938    0.74982    0.28688   1.00
C5       0.48144    0.75055    0.32496   1.00
H2       0.49984    0.77712    0.32660   1.00
H2       0.46161    0.75054    0.35057   1.00
H2       0.50060    0.72456    0.32717   1.00
C3b      0.45756    0.74901    0.21524   1.00
C5       0.47767    0.74887    0.17609   1.00
H2       0.49670    0.72283    0.17349   1.00
H2       0.45655    0.74830    0.15152   1.00
H2       0.49594    0.77539    0.17292   1.00
C4       0.47873    0.74970    0.25054   1.00
C4       0.52127    0.75030    0.24946   1.00
C3b      0.54101    0.78642    0.24855   1.00
C5       0.51937    0.82474    0.24867   1.00
H2       0.50129    0.82718    0.27540   1.00
H2       0.53949    0.85012    0.24787   1.00
H2       0.49995    0.82659    0.22284   1.00
C3b      0.54204    0.71476    0.24933   1.00
C5       0.52152    0.67584    0.25029   1.00
H2       0.50217    0.67287    0.22452   1.00
H2       0.54235    0.65103    0.25004   1.00
H2       0.50350    0.67346    0.27707   1.00
C3a      0.58155    0.78660    0.24752   1.00
H1       0.59700    0.81420    0.24682   1.00
C3a      0.58257    0.71572    0.24829   1.00
H1       0.59881    0.68857    0.24818   1.00
C2       0.60243    0.75145    0.24738   1.00
C2       0.24738    0.60243    0.24855   1.00
C3a      0.21247    0.58116    0.24924   1.00
H1       0.18470    0.59631    0.24932   1.00
C3a      0.28333    0.58296    0.24844   1.00
H1       0.31030    0.59949    0.24791   1.00
C3b      0.21312    0.54062    0.24982   1.00
C5       0.17504    0.51856    0.25055   1.00
H2       0.17340    0.50016    0.27712   1.00
H2       0.14943    0.53839    0.25054   1.00
H2       0.17283    0.49940    0.22456   1.00
C3b      0.28476    0.54244    0.24901   1.00
C5       0.32391    0.52233    0.24887   1.00
H2       0.32651    0.50330    0.22283   1.00
H2       0.34848    0.54345    0.24830   1.00
H2       0.32708    0.50406    0.27539   1.00
C4       0.24946    0.52127    0.24970   1.00
C4       0.25054    0.47873    0.25030   1.00
C3b      0.25145    0.45899    0.28642   1.00
C5       0.25133    0.48063    0.32474   1.00
H2       0.22460    0.49871    0.32718   1.00
H2       0.25213    0.46051    0.35012   1.00
H2       0.27716    0.50005    0.32659   1.00
C3b      0.25067    0.45796    0.21476   1.00
C5       0.24971    0.47848    0.17584   1.00
H2       0.27548    0.49783    0.17287   1.00
H2       0.24996    0.45765    0.15103   1.00
H2       0.22293    0.49650    0.17346   1.00
C3a      0.25248    0.41845    0.28660   1.00
H1       0.25318    0.40300    0.31420   1.00
C3a      0.25171    0.41743    0.21572   1.00
H1       0.25182    0.40119    0.18857   1.00
C2       0.25262    0.39757    0.25145   1.00
C2       0.24855    0.74738    0.10243   1.00
C3a      0.24924    0.71247    0.08116   1.00
H1       0.24932    0.68470    0.09631   1.00
C3a      0.24844    0.78333    0.08296   1.00
H1       0.24791    0.81030    0.09949   1.00
C3b      0.24982    0.71312    0.04062   1.00
C5       0.25055    0.67504    0.01856   1.00
H2       0.27712    0.67340    0.00016   1.00
H2       0.25054    0.64943    0.03839   1.00
H2       0.22456    0.67283    -0.00060   1.00
C3b      0.24901    0.78476    0.04244   1.00
C5       0.24887    0.82391    0.02233   1.00
H2       0.22283    0.82651    0.00330   1.00
H2       0.24830    0.84848    0.04345   1.00
H2       0.27539    0.82708    0.00406   1.00
C4       0.24970    0.74946    0.02127   1.00
C4       0.25030    0.75054    -0.02127   1.00
C3b      0.28642    0.75145    -0.04101   1.00
C5       0.32474    0.75133    -0.01937   1.00
H2       0.32718    0.72460    -0.00129   1.00
H2       0.35012    0.75213    -0.03949   1.00
H2       0.32659    0.77716    0.00005   1.00
C3b      0.21476    0.75067    -0.04204   1.00
C5       0.17584    0.74971    -0.02152   1.00
H2       0.17287    0.77548    -0.00217   1.00
H2       0.15103    0.74996    -0.04235   1.00
H2       0.17346    0.72293    -0.00350   1.00
C3a      0.28660    0.75248    -0.08155   1.00
H1       0.31420    0.75318    -0.09700   1.00
C3a      0.21572    0.75171    -0.08257   1.00
H1       0.18857    0.75182    -0.09881   1.00
C2       0.25145    0.75262    -0.10243   1.00
C2       0.74855    0.25262    0.39757   1.00
C3a      0.74924    0.28753    0.41884   1.00
H1       0.74932    0.31530    0.40369   1.00
C3a      0.74844    0.21667    0.41704   1.00
H1       0.74791    0.18970    0.40051   1.00
C3b      0.74982    0.28688    0.45938   1.00
C5       0.75055    0.32496    0.48144   1.00
H2       0.77712    0.32660    0.49984   1.00
H2       0.75054    0.35057    0.46161   1.00
H2       0.72456    0.32717    0.50060   1.00
C3b      0.74901    0.21524    0.45756   1.00
C5       0.74887    0.17609    0.47767   1.00
H2       0.72283    0.17349    0.49670   1.00
H2       0.74830    0.15152    0.45655   1.00
H2       0.77539    0.17292    0.49594   1.00
C4       0.74970    0.25054    0.47873   1.00
C4       0.75030    0.24946    0.52127   1.00
C3b      0.78642    0.24855    0.54101   1.00
C5       0.82474    0.24867    0.51937   1.00
H2       0.82718    0.27540    0.50129   1.00
H2       0.85012    0.24787    0.53949   1.00
H2       0.82659    0.22284    0.49995   1.00
C3b      0.71476    0.24933    0.54204   1.00
C5       0.67584    0.25029    0.52152   1.00
H2       0.67287    0.22452    0.50217   1.00
H2       0.65103    0.25004    0.54235   1.00
H2       0.67346    0.27707    0.50350   1.00
C3a      0.78660    0.24752    0.58155   1.00
H1       0.81420    0.24682    0.59700   1.00
C3a      0.71572    0.24829    0.58257   1.00
H1       0.68857    0.24818    0.59881   1.00
C2       0.75145    0.24738    0.60243   1.00
C2       0.75262    0.39757    0.24855   1.00
C3a      0.78753    0.41884    0.24924   1.00
H1       0.81530    0.40369    0.24932   1.00
C3a      0.71667    0.41704    0.24844   1.00
H1       0.68970    0.40051    0.24791   1.00
C3b      0.78688    0.45938    0.24982   1.00
C5       0.82496    0.48144    0.25055   1.00
H2       0.82660    0.49984    0.27712   1.00
H2       0.85057    0.46161    0.25054   1.00
H2       0.82717    0.50060    0.22456   1.00
C3b      0.71524    0.45756    0.24901   1.00
C5       0.67609    0.47767    0.24887   1.00
H2       0.67349    0.49670    0.22283   1.00
H2       0.65152    0.45655    0.24830   1.00
H2       0.67292    0.49594    0.27539   1.00
C4       0.75054    0.47873    0.24970   1.00
C4       0.74946    0.52127    0.25030   1.00
C3b      0.74855    0.54101    0.28642   1.00
C5       0.74867    0.51937    0.32474   1.00
H2       0.77540    0.50129    0.32718   1.00
H2       0.74787    0.53949    0.35012   1.00
H2       0.72284    0.49995    0.32659   1.00
C3b      0.74933    0.54204    0.21476   1.00
C5       0.75029    0.52152    0.17584   1.00
H2       0.72452    0.50217    0.17287   1.00
H2       0.75004    0.54235    0.15103   1.00
H2       0.77707    0.50350    0.17346   1.00
C3a      0.74752    0.58155    0.28660   1.00
H1       0.74682    0.59700    0.31420   1.00
C3a      0.74829    0.58257    0.21572   1.00
H1       0.74818    0.59881    0.18857   1.00
C2       0.74738    0.60243    0.25145   1.00
C2       0.60243    0.24855    0.24738   1.00
C3a      0.58116    0.24924    0.21247   1.00
H1       0.59631    0.24932    0.18470   1.00
C3a      0.58296    0.24844    0.28333   1.00
H1       0.59949    0.24791    0.31030   1.00
C3b      0.54062    0.24982    0.21312   1.00
C5       0.51856    0.25055    0.17504   1.00
H2       0.50016    0.27712    0.17340   1.00
H2       0.53839    0.25054    0.14943   1.00
H2       0.49940    0.22456    0.17283   1.00
C3b      0.54244    0.24901    0.28476   1.00
C5       0.52233    0.24887    0.32391   1.00
H2       0.50330    0.22283    0.32651   1.00
H2       0.54345    0.24830    0.34848   1.00
H2       0.50406    0.27539    0.32708   1.00
C4       0.52127    0.24970    0.24946   1.00
C4       0.47873    0.25030    0.25054   1.00
C3b      0.45899    0.28642    0.25145   1.00
C5       0.48063    0.32474    0.25133   1.00
H2       0.49871    0.32718    0.22460   1.00
H2       0.46051    0.35012    0.25213   1.00
H2       0.50005    0.32659    0.27716   1.00
C3b      0.45796    0.21476    0.25067   1.00
C5       0.47848    0.17584    0.24971   1.00
H2       0.49783    0.17287    0.27548   1.00
H2       0.45765    0.15103    0.24996   1.00
H2       0.49650    0.17346    0.22293   1.00
C3a      0.41845    0.28660    0.25248   1.00
H1       0.40300    0.31420    0.25318   1.00
C3a      0.41743    0.21572    0.25171   1.00
H1       0.40119    0.18857    0.25182   1.00
C2       0.39757    0.25145    0.25262   1.00
C2       0.89757    0.24855    0.25262   1.00
C3a      0.91884    0.24924    0.28753   1.00
H1       0.90369    0.24932    0.31530   1.00
C3a      0.91704    0.24844    0.21667   1.00
H1       0.90051    0.24791    0.18970   1.00
C3b      0.95938    0.24982    0.28688   1.00
C5       0.98144    0.25055    0.32496   1.00
H2       0.99984    0.27712    0.32660   1.00
H2       0.96161    0.25054    0.35057   1.00
H2       1.00060    0.22456    0.32717   1.00
C3b      0.95756    0.24901    0.21524   1.00
C5       0.97767    0.24887    0.17609   1.00
H2       0.99670    0.22283    0.17349   1.00
H2       0.95655    0.24830    0.15152   1.00
H2       0.99594    0.27539    0.17292   1.00
C4       0.97873    0.24970    0.25054   1.00
C4       1.02127    0.25030    0.24946   1.00
C3b      1.04101    0.28642    0.24855   1.00
C5       1.01937    0.32474    0.24867   1.00
H2       1.00129    0.32718    0.27540   1.00
H2       1.03949    0.35012    0.24787   1.00
H2       0.99995    0.32659    0.22284   1.00
C3b      1.04204    0.21476    0.24933   1.00
C5       1.02152    0.17584    0.25029   1.00
H2       1.00217    0.17287    0.22452   1.00
H2       1.04235    0.15103    0.25004   1.00
H2       1.00350    0.17346    0.27707   1.00
C3a      1.08155    0.28660    0.24752   1.00
H1       1.09700    0.31420    0.24682   1.00
C3a      1.08257    0.21572    0.24829   1.00
H1       1.09881    0.18857    0.24818   1.00
C2       1.10243    0.25145    0.24738   1.00
C2       0.74738    0.10243    0.24855   1.00
C3a      0.71247    0.08116    0.24924   1.00
H1       0.68470    0.09631    0.24932   1.00
C3a      0.78333    0.08296    0.24844   1.00
H1       0.81030    0.09949    0.24791   1.00
C3b      0.71312    0.04062    0.24982   1.00
C5       0.67504    0.01856    0.25055   1.00
H2       0.67340    0.00016    0.27712   1.00
H2       0.64943    0.03839    0.25054   1.00
H2       0.67283    -0.00060   0.22456   1.00
C3b      0.78476    0.04244    0.24901   1.00
C5       0.82391    0.02233    0.24887   1.00
H2       0.82651    0.00330    0.22283   1.00
H2       0.84848    0.04345    0.24830   1.00
H2       0.82708    0.00406    0.27539   1.00
C4       0.74946    0.02127    0.24970   1.00
C4       0.75054    -0.02127   0.25030   1.00
C3b      0.75145    -0.04101   0.28642   1.00
C5       0.75133    -0.01937   0.32474   1.00
H2       0.72460    -0.00129   0.32718   1.00
H2       0.75213    -0.03949   0.35012   1.00
H2       0.77716    0.00005    0.32659   1.00
C3b      0.75067    -0.04204   0.21476   1.00
C5       0.74971    -0.02152   0.17584   1.00
H2       0.77548    -0.00217   0.17287   1.00
H2       0.74996    -0.04235   0.15103   1.00
H2       0.72293    -0.00350   0.17346   1.00
C3a      0.75248    -0.08155   0.28660   1.00
H1       0.75318    -0.09700   0.31420   1.00
C3a      0.75171    -0.08257   0.21572   1.00
H1       0.75182    -0.09881   0.18857   1.00
C2       0.75262    -0.10243   0.25145   1.00
C2       0.74855    0.24738    0.10243   1.00
C3a      0.74924    0.21247    0.08116   1.00
H1       0.74932    0.18470    0.09631   1.00
C3a      0.74844    0.28333    0.08296   1.00
H1       0.74791    0.31030    0.09949   1.00
C3b      0.74982    0.21312    0.04062   1.00
C5       0.75055    0.17504    0.01856   1.00
H2       0.77712    0.17340    0.00016   1.00
H2       0.75054    0.14943    0.03839   1.00
H2       0.72456    0.17283    -0.00060   1.00
C3b      0.74901    0.28476    0.04244   1.00
C5       0.74887    0.32391    0.02233   1.00
H2       0.72283    0.32651    0.00330   1.00
H2       0.74830    0.34848    0.04345   1.00
H2       0.77539    0.32708    0.00406   1.00
C4       0.74970    0.24946    0.02127   1.00
C4       0.75030    0.25054    -0.02127   1.00
C3b      0.78642    0.25145    -0.04101   1.00
C5       0.82474    0.25133    -0.01937   1.00
H2       0.82718    0.22460    -0.00129   1.00
H2       0.85012    0.25213    -0.03949   1.00
H2       0.82659    0.27716    0.00005   1.00
C3b      0.71476    0.25067    -0.04204   1.00
C5       0.67584    0.24971    -0.02152   1.00
H2       0.67287    0.27548    -0.00217   1.00
H2       0.65103    0.24996    -0.04235   1.00
H2       0.67346    0.22293    -0.00350   1.00
C3a      0.78660    0.25248    -0.08155   1.00
H1       0.81420    0.25318    -0.09700   1.00
C3a      0.71572    0.25171    -0.08257   1.00
H1       0.68857    0.25182    -0.09881   1.00
C2       0.75145    0.25262    -0.10243   1.00
C2       0.91355    0.91762    1.06257   1.00
C3a      0.91424    0.95253    1.08384   1.00
H1       0.91432    0.98030    1.06869   1.00
C3a      0.91344    0.88167    1.08204   1.00
H1       0.91291    0.85470    1.06551   1.00
C3b      0.91482    0.95188    1.12438   1.00
C5       0.91555    0.98996    1.14644   1.00
H2       0.94212    0.99160    1.16484   1.00
H2       0.91554    1.01557    1.12661   1.00
H2       0.88956    0.99217    1.16560   1.00
C3b      0.91401    0.88024    1.12256   1.00
C5       0.91387    0.84109    1.14267   1.00
H2       0.88783    0.83849    1.16170   1.00
H2       0.91330    0.81652    1.12155   1.00
H2       0.94039    0.83792    1.16094   1.00
C4       0.91470    0.91554    1.14373   1.00
C4       0.91530    0.91446    1.18627   1.00
C3b      0.95142    0.91355    1.20601   1.00
C5       0.98974    0.91367    1.18437   1.00
H2       0.99218    0.94040    1.16629   1.00
H2       1.01512    0.91287    1.20449   1.00
H2       0.99159    0.88784    1.16495   1.00
C3b      0.87976    0.91433    1.20704   1.00
C5       0.84084    0.91529    1.18652   1.00
H2       0.83787    0.88952    1.16717   1.00
H2       0.81603    0.91504    1.20735   1.00
H2       0.83846    0.94207    1.16850   1.00
C3a      0.95160    0.91252    1.24655   1.00
H1       0.97920    0.91182    1.26200   1.00
C3a      0.88072    0.91329    1.24757   1.00
H1       0.85357    0.91318    1.26381   1.00
C2       0.91645    0.91238    1.26743   1.00
C2       0.91762    1.06257    0.91355   1.00
C3a      0.95253    1.08384    0.91424   1.00
H1       0.98030    1.06869    0.91432   1.00
C3a      0.88167    1.08204    0.91344   1.00
H1       0.85470    1.06551    0.91291   1.00
C3b      0.95188    1.12438    0.91482   1.00
C5       0.98996    1.14644    0.91555   1.00
H2       0.99160    1.16484    0.94212   1.00
H2       1.01557    1.12661    0.91554   1.00
H2       0.99217    1.16560    0.88956   1.00
C3b      0.88024    1.12256    0.91401   1.00
C5       0.84109    1.14267    0.91387   1.00
H2       0.83849    1.16170    0.88783   1.00
H2       0.81652    1.12155    0.91330   1.00
H2       0.83792    1.16094    0.94039   1.00
C4       0.91554    1.14373    0.91470   1.00
C4       0.91446    1.18627    0.91530   1.00
C3b      0.91355    1.20601    0.95142   1.00
C5       0.91367    1.18437    0.98974   1.00
H2       0.94040    1.16629    0.99218   1.00
H2       0.91287    1.20449    1.01512   1.00
H2       0.88784    1.16495    0.99159   1.00
C3b      0.91433    1.20704    0.87976   1.00
C5       0.91529    1.18652    0.84084   1.00
H2       0.88952    1.16717    0.83787   1.00
H2       0.91504    1.20735    0.81603   1.00
H2       0.94207    1.16850    0.83846   1.00
C3a      0.91252    1.24655    0.95160   1.00
H1       0.91182    1.26200    0.97920   1.00
C3a      0.91329    1.24757    0.88072   1.00
H1       0.91318    1.26381    0.85357   1.00
C2       0.91238    1.26743    0.91645   1.00
C2       0.76743    0.91355    0.91238   1.00
C3a      0.74616    0.91424    0.87747   1.00
H1       0.76131    0.91432    0.84970   1.00
C3a      0.74796    0.91344    0.94833   1.00
H1       0.76449    0.91291    0.97530   1.00
C3b      0.70562    0.91482    0.87812   1.00
C5       0.68356    0.91555    0.84004   1.00
H2       0.66516    0.94212    0.83840   1.00
H2       0.70339    0.91554    0.81443   1.00
H2       0.66440    0.88956    0.83783   1.00
C3b      0.70744    0.91401    0.94976   1.00
C5       0.68733    0.91387    0.98891   1.00
H2       0.66830    0.88783    0.99151   1.00
H2       0.70845    0.91330    1.01348   1.00
H2       0.66906    0.94039    0.99208   1.00
C4       0.68627    0.91470    0.91446   1.00
C4       0.64373    0.91530    0.91554   1.00
C3b      0.62399    0.95142    0.91645   1.00
C5       0.64563    0.98974    0.91633   1.00
H2       0.66371    0.99218    0.88960   1.00
H2       0.62551    1.01512    0.91713   1.00
H2       0.66505    0.99159    0.94216   1.00
C3b      0.62296    0.87976    0.91567   1.00
C5       0.64348    0.84084    0.91471   1.00
H2       0.66283    0.83787    0.94048   1.00
H2       0.62265    0.81603    0.91496   1.00
H2       0.66150    0.83846    0.88793   1.00
C3a      0.58345    0.95160    0.91748   1.00
H1       0.56800    0.97920    0.91818   1.00
C3a      0.58243    0.88072    0.91671   1.00
H1       0.56619    0.85357    0.91682   1.00
C2       0.56257    0.91645    0.91762   1.00
C2       1.06257    0.91355    0.91762   1.00
C3a      1.08384    0.91424    0.95253   1.00
H1       1.06869    0.91432    0.98030   1.00
C3a      1.08204    0.91344    0.88167   1.00
H1       1.06551    0.91291    0.85470   1.00
C3b      1.12438    0.91482    0.95188   1.00
C5       1.14644    0.91555    0.98996   1.00
H2       1.16484    0.94212    0.99160   1.00
H2       1.12661    0.91554    1.01557   1.00
H2       1.16560    0.88956    0.99217   1.00
C3b      1.12256    0.91401    0.88024   1.00
C5       1.14267    0.91387    0.84109   1.00
H2       1.16170    0.88783    0.83849   1.00
H2       1.12155    0.91330    0.81652   1.00
H2       1.16094    0.94039    0.83792   1.00
C4       1.14373    0.91470    0.91554   1.00
C4       1.18627    0.91530    0.91446   1.00
C3b      1.20601    0.95142    0.91355   1.00
C5       1.18437    0.98974    0.91367   1.00
H2       1.16629    0.99218    0.94040   1.00
H2       1.20449    1.01512    0.91287   1.00
H2       1.16495    0.99159    0.88784   1.00
C3b      1.20704    0.87976    0.91433   1.00
C5       1.18652    0.84084    0.91529   1.00
H2       1.16717    0.83787    0.88952   1.00
H2       1.20735    0.81603    0.91504   1.00
H2       1.16850    0.83846    0.94207   1.00
C3a      1.24655    0.95160    0.91252   1.00
H1       1.26200    0.97920    0.91182   1.00
C3a      1.24757    0.88072    0.91329   1.00
H1       1.26381    0.85357    0.91318   1.00
C2       1.26743    0.91645    0.91238   1.00
C2       0.91238    0.76743    0.91355   1.00
C3a      0.87747    0.74616    0.91424   1.00
H1       0.84970    0.76131    0.91432   1.00
C3a      0.94833    0.74796    0.91344   1.00
H1       0.97530    0.76449    0.91291   1.00
C3b      0.87812    0.70562    0.91482   1.00
C5       0.84004    0.68356    0.91555   1.00
H2       0.83840    0.66516    0.94212   1.00
H2       0.81443    0.70339    0.91554   1.00
H2       0.83783    0.66440    0.88956   1.00
C3b      0.94976    0.70744    0.91401   1.00
C5       0.98891    0.68733    0.91387   1.00
H2       0.99151    0.66830    0.88783   1.00
H2       1.01348    0.70845    0.91330   1.00
H2       0.99208    0.66906    0.94039   1.00
C4       0.91446    0.68627    0.91470   1.00
C4       0.91554    0.64373    0.91530   1.00
C3b      0.91645    0.62399    0.95142   1.00
C5       0.91633    0.64563    0.98974   1.00
H2       0.88960    0.66371    0.99218   1.00
H2       0.91713    0.62551    1.01512   1.00
H2       0.94216    0.66505    0.99159   1.00
C3b      0.91567    0.62296    0.87976   1.00
C5       0.91471    0.64348    0.84084   1.00
H2       0.94048    0.66283    0.83787   1.00
H2       0.91496    0.62265    0.81603   1.00
H2       0.88793    0.66150    0.83846   1.00
C3a      0.91748    0.58345    0.95160   1.00
H1       0.91818    0.56800    0.97920   1.00
C3a      0.91671    0.58243    0.88072   1.00
H1       0.91682    0.56619    0.85357   1.00
C2       0.91762    0.56257    0.91645   1.00
C2       0.91355    0.91238    0.76743   1.00
C3a      0.91424    0.87747    0.74616   1.00
H1       0.91432    0.84970    0.76131   1.00
C3a      0.91344    0.94833    0.74796   1.00
H1       0.91291    0.97530    0.76449   1.00
C3b      0.91482    0.87812    0.70562   1.00
C5       0.91555    0.84004    0.68356   1.00
H2       0.94212    0.83840    0.66516   1.00
H2       0.91554    0.81443    0.70339   1.00
H2       0.88956    0.83783    0.66440   1.00
C3b      0.91401    0.94976    0.70744   1.00
C5       0.91387    0.98891    0.68733   1.00
H2       0.88783    0.99151    0.66830   1.00
H2       0.91330    1.01348    0.70845   1.00
H2       0.94039    0.99208    0.66906   1.00
C4       0.91470    0.91446    0.68627   1.00
C4       0.91530    0.91554    0.64373   1.00
C3b      0.95142    0.91645    0.62399   1.00
C5       0.98974    0.91633    0.64563   1.00
H2       0.99218    0.88960    0.66371   1.00
H2       1.01512    0.91713    0.62551   1.00
H2       0.99159    0.94216    0.66505   1.00
C3b      0.87976    0.91567    0.62296   1.00
C5       0.84084    0.91471    0.64348   1.00
H2       0.83787    0.94048    0.66283   1.00
H2       0.81603    0.91496    0.62265   1.00
H2       0.83846    0.88793    0.66150   1.00
C3a      0.95160    0.91748    0.58345   1.00
H1       0.97920    0.91818    0.56800   1.00
C3a      0.88072    0.91671    0.58243   1.00
H1       0.85357    0.91682    0.56619   1.00
C2       0.91645    0.91762    0.56257   1.00
C2       0.41355    0.41762    1.06257   1.00
C3a      0.41424    0.45253    1.08384   1.00
H1       0.41432    0.48030    1.06869   1.00
C3a      0.41344    0.38167    1.08204   1.00
H1       0.41291    0.35470    1.06551   1.00
C3b      0.41482    0.45188    1.12438   1.00
C5       0.41555    0.48996    1.14644   1.00
H2       0.44212    0.49160    1.16484   1.00
H2       0.41554    0.51557    1.12661   1.00
H2       0.38956    0.49217    1.16560   1.00
C3b      0.41401    0.38024    1.12256   1.00
C5       0.41387    0.34109    1.14267   1.00
H2       0.38783    0.33849    1.16170   1.00
H2       0.41330    0.31652    1.12155   1.00
H2       0.44039    0.33792    1.16094   1.00
C4       0.41470    0.41554    1.14373   1.00
C4       0.41530    0.41446    1.18627   1.00
C3b      0.45142    0.41355    1.20601   1.00
C5       0.48974    0.41367    1.18437   1.00
H2       0.49218    0.44040    1.16629   1.00
H2       0.51512    0.41287    1.20449   1.00
H2       0.49159    0.38784    1.16495   1.00
C3b      0.37976    0.41433    1.20704   1.00
C5       0.34084    0.41529    1.18652   1.00
H2       0.33787    0.38952    1.16717   1.00
H2       0.31603    0.41504    1.20735   1.00
H2       0.33846    0.44207    1.16850   1.00
C3a      0.45160    0.41252    1.24655   1.00
H1       0.47920    0.41182    1.26200   1.00
C3a      0.38072    0.41329    1.24757   1.00
H1       0.35357    0.41318    1.26381   1.00
C2       0.41645    0.41238    1.26743   1.00
C2       0.41762    0.56257    0.91355   1.00
C3a      0.45253    0.58384    0.91424   1.00
H1       0.48030    0.56869    0.91432   1.00
C3a      0.38167    0.58204    0.91344   1.00
H1       0.35470    0.56551    0.91291   1.00
C3b      0.45188    0.62438    0.91482   1.00
C5       0.48996    0.64644    0.91555   1.00
H2       0.49160    0.66484    0.94212   1.00
H2       0.51557    0.62661    0.91554   1.00
H2       0.49217    0.66560    0.88956   1.00
C3b      0.38024    0.62256    0.91401   1.00
C5       0.34109    0.64267    0.91387   1.00
H2       0.33849    0.66170    0.88783   1.00
H2       0.31652    0.62155    0.91330   1.00
H2       0.33792    0.66094    0.94039   1.00
C4       0.41554    0.64373    0.91470   1.00
C4       0.41446    0.68627    0.91530   1.00
C3b      0.41355    0.70601    0.95142   1.00
C5       0.41367    0.68437    0.98974   1.00
H2       0.44040    0.66629    0.99218   1.00
H2       0.41287    0.70449    1.01512   1.00
H2       0.38784    0.66495    0.99159   1.00
C3b      0.41433    0.70704    0.87976   1.00
C5       0.41529    0.68652    0.84084   1.00
H2       0.38952    0.66717    0.83787   1.00
H2       0.41504    0.70735    0.81603   1.00
H2       0.44207    0.66850    0.83846   1.00
C3a      0.41252    0.74655    0.95160   1.00
H1       0.41182    0.76200    0.97920   1.00
C3a      0.41329    0.74757    0.88072   1.00
H1       0.41318    0.76381    0.85357   1.00
C2       0.41238    0.76743    0.91645   1.00
C2       0.26743    0.41355    0.91238   1.00
C3a      0.24616    0.41424    0.87747   1.00
H1       0.26131    0.41432    0.84970   1.00
C3a      0.24796    0.41344    0.94833   1.00
H1       0.26449    0.41291    0.97530   1.00
C3b      0.20562    0.41482    0.87812   1.00
C5       0.18356    0.41555    0.84004   1.00
H2       0.16516    0.44212    0.83840   1.00
H2       0.20339    0.41554    0.81443   1.00
H2       0.16440    0.38956    0.83783   1.00
C3b      0.20744    0.41401    0.94976   1.00
C5       0.18733    0.41387    0.98891   1.00
H2       0.16830    0.38783    0.99151   1.00
H2       0.20845    0.41330    1.01348   1.00
H2       0.16906    0.44039    0.99208   1.00
C4       0.18627    0.41470    0.91446   1.00
C4       0.14373    0.41530    0.91554   1.00
C3b      0.12399    0.45142    0.91645   1.00
C5       0.14563    0.48974    0.91633   1.00
H2       0.16371    0.49218    0.88960   1.00
H2       0.12551    0.51512    0.91713   1.00
H2       0.16505    0.49159    0.94216   1.00
C3b      0.12296    0.37976    0.91567   1.00
C5       0.14348    0.34084    0.91471   1.00
H2       0.16283    0.33787    0.94048   1.00
H2       0.12265    0.31603    0.91496   1.00
H2       0.16150    0.33846    0.88793   1.00
C3a      0.08345    0.45160    0.91748   1.00
H1       0.06800    0.47920    0.91818   1.00
C3a      0.08243    0.38072    0.91671   1.00
H1       0.06619    0.35357    0.91682   1.00
C2       0.06257    0.41645    0.91762   1.00
C2       0.56257    0.41355    0.91762   1.00
C3a      0.58384    0.41424    0.95253   1.00
H1       0.56869    0.41432    0.98030   1.00
C3a      0.58204    0.41344    0.88167   1.00
H1       0.56551    0.41291    0.85470   1.00
C3b      0.62438    0.41482    0.95188   1.00
C5       0.64644    0.41555    0.98996   1.00
H2       0.66484    0.44212    0.99160   1.00
H2       0.62661    0.41554    1.01557   1.00
H2       0.66560    0.38956    0.99217   1.00
C3b      0.62256    0.41401    0.88024   1.00
C5       0.64267    0.41387    0.84109   1.00
H2       0.66170    0.38783    0.83849   1.00
H2       0.62155    0.41330    0.81652   1.00
H2       0.66094    0.44039    0.83792   1.00
C4       0.64373    0.41470    0.91554   1.00
C4       0.68627    0.41530    0.91446   1.00
C3b      0.70601    0.45142    0.91355   1.00
C5       0.68437    0.48974    0.91367   1.00
H2       0.66629    0.49218    0.94040   1.00
H2       0.70449    0.51512    0.91287   1.00
H2       0.66495    0.49159    0.88784   1.00
C3b      0.70704    0.37976    0.91433   1.00
C5       0.68652    0.34084    0.91529   1.00
H2       0.66717    0.33787    0.88952   1.00
H2       0.70735    0.31603    0.91504   1.00
H2       0.66850    0.33846    0.94207   1.00
C3a      0.74655    0.45160    0.91252   1.00
H1       0.76200    0.47920    0.91182   1.00
C3a      0.74757    0.38072    0.91329   1.00
H1       0.76381    0.35357    0.91318   1.00
C2       0.76743    0.41645    0.91238   1.00
C2       0.41238    0.26743    0.91355   1.00
C3a      0.37747    0.24616    0.91424   1.00
H1       0.34970    0.26131    0.91432   1.00
C3a      0.44833    0.24796    0.91344   1.00
H1       0.47530    0.26449    0.91291   1.00
C3b      0.37812    0.20562    0.91482   1.00
C5       0.34004    0.18356    0.91555   1.00
H2       0.33840    0.16516    0.94212   1.00
H2       0.31443    0.20339    0.91554   1.00
H2       0.33783    0.16440    0.88956   1.00
C3b      0.44976    0.20744    0.91401   1.00
C5       0.48891    0.18733    0.91387   1.00
H2       0.49151    0.16830    0.88783   1.00
H2       0.51348    0.20845    0.91330   1.00
H2       0.49208    0.16906    0.94039   1.00
C4       0.41446    0.18627    0.91470   1.00
C4       0.41554    0.14373    0.91530   1.00
C3b      0.41645    0.12399    0.95142   1.00
C5       0.41633    0.14563    0.98974   1.00
H2       0.38960    0.16371    0.99218   1.00
H2       0.41713    0.12551    1.01512   1.00
H2       0.44216    0.16505    0.99159   1.00
C3b      0.41567    0.12296    0.87976   1.00
C5       0.41471    0.14348    0.84084   1.00
H2       0.44048    0.16283    0.83787   1.00
H2       0.41496    0.12265    0.81603   1.00
H2       0.38793    0.16150    0.83846   1.00
C3a      0.41748    0.08345    0.95160   1.00
H1       0.41818    0.06800    0.97920   1.00
C3a      0.41671    0.08243    0.88072   1.00
H1       0.41682    0.06619    0.85357   1.00
C2       0.41762    0.06257    0.91645   1.00
C2       0.41355    0.41238    0.76743   1.00
C3a      0.41424    0.37747    0.74616   1.00
H1       0.41432    0.34970    0.76131   1.00
C3a      0.41344    0.44833    0.74796   1.00
H1       0.41291    0.47530    0.76449   1.00
C3b      0.41482    0.37812    0.70562   1.00
C5       0.41555    0.34004    0.68356   1.00
H2       0.44212    0.33840    0.66516   1.00
H2       0.41554    0.31443    0.70339   1.00
H2       0.38956    0.33783    0.66440   1.00
C3b      0.41401    0.44976    0.70744   1.00
C5       0.41387    0.48891    0.68733   1.00
H2       0.38783    0.49151    0.66830   1.00
H2       0.41330    0.51348    0.70845   1.00
H2       0.44039    0.49208    0.66906   1.00
C4       0.41470    0.41446    0.68627   1.00
C4       0.41530    0.41554    0.64373   1.00
C3b      0.45142    0.41645    0.62399   1.00
C5       0.48974    0.41633    0.64563   1.00
H2       0.49218    0.38960    0.66371   1.00
H2       0.51512    0.41713    0.62551   1.00
H2       0.49159    0.44216    0.66505   1.00
C3b      0.37976    0.41567    0.62296   1.00
C5       0.34084    0.41471    0.64348   1.00
H2       0.33787    0.44048    0.66283   1.00
H2       0.31603    0.41496    0.62265   1.00
H2       0.33846    0.38793    0.66150   1.00
C3a      0.45160    0.41748    0.58345   1.00
H1       0.47920    0.41818    0.56800   1.00
C3a      0.38072    0.41671    0.58243   1.00
H1       0.35357    0.41682    0.56619   1.00
C2       0.41645    0.41762    0.56257   1.00
C2       0.41355    0.91762    0.56257   1.00
C3a      0.41424    0.95253    0.58384   1.00
H1       0.41432    0.98030    0.56869   1.00
C3a      0.41344    0.88167    0.58204   1.00
H1       0.41291    0.85470    0.56551   1.00
C3b      0.41482    0.95188    0.62438   1.00
C5       0.41555    0.98996    0.64644   1.00
H2       0.44212    0.99160    0.66484   1.00
H2       0.41554    1.01557    0.62661   1.00
H2       0.38956    0.99217    0.66560   1.00
C3b      0.41401    0.88024    0.62256   1.00
C5       0.41387    0.84109    0.64267   1.00
H2       0.38783    0.83849    0.66170   1.00
H2       0.41330    0.81652    0.62155   1.00
H2       0.44039    0.83792    0.66094   1.00
C4       0.41470    0.91554    0.64373   1.00
C4       0.41530    0.91446    0.68627   1.00
C3b      0.45142    0.91355    0.70601   1.00
C5       0.48974    0.91367    0.68437   1.00
H2       0.49218    0.94040    0.66629   1.00
H2       0.51512    0.91287    0.70449   1.00
H2       0.49159    0.88784    0.66495   1.00
C3b      0.37976    0.91433    0.70704   1.00
C5       0.34084    0.91529    0.68652   1.00
H2       0.33787    0.88952    0.66717   1.00
H2       0.31603    0.91504    0.70735   1.00
H2       0.33846    0.94207    0.66850   1.00
C3a      0.45160    0.91252    0.74655   1.00
H1       0.47920    0.91182    0.76200   1.00
C3a      0.38072    0.91329    0.74757   1.00
H1       0.35357    0.91318    0.76381   1.00
C2       0.41645    0.91238    0.76743   1.00
C2       0.41762    1.06257    0.41355   1.00
C3a      0.45253    1.08384    0.41424   1.00
H1       0.48030    1.06869    0.41432   1.00
C3a      0.38167    1.08204    0.41344   1.00
H1       0.35470    1.06551    0.41291   1.00
C3b      0.45188    1.12438    0.41482   1.00
C5       0.48996    1.14644    0.41555   1.00
H2       0.49160    1.16484    0.44212   1.00
H2       0.51557    1.12661    0.41554   1.00
H2       0.49217    1.16560    0.38956   1.00
C3b      0.38024    1.12256    0.41401   1.00
C5       0.34109    1.14267    0.41387   1.00
H2       0.33849    1.16170    0.38783   1.00
H2       0.31652    1.12155    0.41330   1.00
H2       0.33792    1.16094    0.44039   1.00
C4       0.41554    1.14373    0.41470   1.00
C4       0.41446    1.18627    0.41530   1.00
C3b      0.41355    1.20601    0.45142   1.00
C5       0.41367    1.18437    0.48974   1.00
H2       0.44040    1.16629    0.49218   1.00
H2       0.41287    1.20449    0.51512   1.00
H2       0.38784    1.16495    0.49159   1.00
C3b      0.41433    1.20704    0.37976   1.00
C5       0.41529    1.18652    0.34084   1.00
H2       0.38952    1.16717    0.33787   1.00
H2       0.41504    1.20735    0.31603   1.00
H2       0.44207    1.16850    0.33846   1.00
C3a      0.41252    1.24655    0.45160   1.00
H1       0.41182    1.26200    0.47920   1.00
C3a      0.41329    1.24757    0.38072   1.00
H1       0.41318    1.26381    0.35357   1.00
C2       0.41238    1.26743    0.41645   1.00
C2       0.26743    0.91355    0.41238   1.00
C3a      0.24616    0.91424    0.37747   1.00
H1       0.26131    0.91432    0.34970   1.00
C3a      0.24796    0.91344    0.44833   1.00
H1       0.26449    0.91291    0.47530   1.00
C3b      0.20562    0.91482    0.37812   1.00
C5       0.18356    0.91555    0.34004   1.00
H2       0.16516    0.94212    0.33840   1.00
H2       0.20339    0.91554    0.31443   1.00
H2       0.16440    0.88956    0.33783   1.00
C3b      0.20744    0.91401    0.44976   1.00
C5       0.18733    0.91387    0.48891   1.00
H2       0.16830    0.88783    0.49151   1.00
H2       0.20845    0.91330    0.51348   1.00
H2       0.16906    0.94039    0.49208   1.00
C4       0.18627    0.91470    0.41446   1.00
C4       0.14373    0.91530    0.41554   1.00
C3b      0.12399    0.95142    0.41645   1.00
C5       0.14563    0.98974    0.41633   1.00
H2       0.16371    0.99218    0.38960   1.00
H2       0.12551    1.01512    0.41713   1.00
H2       0.16505    0.99159    0.44216   1.00
C3b      0.12296    0.87976    0.41567   1.00
C5       0.14348    0.84084    0.41471   1.00
H2       0.16283    0.83787    0.44048   1.00
H2       0.12265    0.81603    0.41496   1.00
H2       0.16150    0.83846    0.38793   1.00
C3a      0.08345    0.95160    0.41748   1.00
H1       0.06800    0.97920    0.41818   1.00
C3a      0.08243    0.88072    0.41671   1.00
H1       0.06619    0.85357    0.41682   1.00
C2       0.06257    0.91645    0.41762   1.00
C2       0.56257    0.91355    0.41762   1.00
C3a      0.58384    0.91424    0.45253   1.00
H1       0.56869    0.91432    0.48030   1.00
C3a      0.58204    0.91344    0.38167   1.00
H1       0.56551    0.91291    0.35470   1.00
C3b      0.62438    0.91482    0.45188   1.00
C5       0.64644    0.91555    0.48996   1.00
H2       0.66484    0.94212    0.49160   1.00
H2       0.62661    0.91554    0.51557   1.00
H2       0.66560    0.88956    0.49217   1.00
C3b      0.62256    0.91401    0.38024   1.00
C5       0.64267    0.91387    0.34109   1.00
H2       0.66170    0.88783    0.33849   1.00
H2       0.62155    0.91330    0.31652   1.00
H2       0.66094    0.94039    0.33792   1.00
C4       0.64373    0.91470    0.41554   1.00
C4       0.68627    0.91530    0.41446   1.00
C3b      0.70601    0.95142    0.41355   1.00
C5       0.68437    0.98974    0.41367   1.00
H2       0.66629    0.99218    0.44040   1.00
H2       0.70449    1.01512    0.41287   1.00
H2       0.66495    0.99159    0.38784   1.00
C3b      0.70704    0.87976    0.41433   1.00
C5       0.68652    0.84084    0.41529   1.00
H2       0.66717    0.83787    0.38952   1.00
H2       0.70735    0.81603    0.41504   1.00
H2       0.66850    0.83846    0.44207   1.00
C3a      0.74655    0.95160    0.41252   1.00
H1       0.76200    0.97920    0.41182   1.00
C3a      0.74757    0.88072    0.41329   1.00
H1       0.76381    0.85357    0.41318   1.00
C2       0.76743    0.91645    0.41238   1.00
C2       0.41238    0.76743    0.41355   1.00
C3a      0.37747    0.74616    0.41424   1.00
H1       0.34970    0.76131    0.41432   1.00
C3a      0.44833    0.74796    0.41344   1.00
H1       0.47530    0.76449    0.41291   1.00
C3b      0.37812    0.70562    0.41482   1.00
C5       0.34004    0.68356    0.41555   1.00
H2       0.33840    0.66516    0.44212   1.00
H2       0.31443    0.70339    0.41554   1.00
H2       0.33783    0.66440    0.38956   1.00
C3b      0.44976    0.70744    0.41401   1.00
C5       0.48891    0.68733    0.41387   1.00
H2       0.49151    0.66830    0.38783   1.00
H2       0.51348    0.70845    0.41330   1.00
H2       0.49208    0.66906    0.44039   1.00
C4       0.41446    0.68627    0.41470   1.00
C4       0.41554    0.64373    0.41530   1.00
C3b      0.41645    0.62399    0.45142   1.00
C5       0.41633    0.64563    0.48974   1.00
H2       0.38960    0.66371    0.49218   1.00
H2       0.41713    0.62551    0.51512   1.00
H2       0.44216    0.66505    0.49159   1.00
C3b      0.41567    0.62296    0.37976   1.00
C5       0.41471    0.64348    0.34084   1.00
H2       0.44048    0.66283    0.33787   1.00
H2       0.41496    0.62265    0.31603   1.00
H2       0.38793    0.66150    0.33846   1.00
C3a      0.41748    0.58345    0.45160   1.00
H1       0.41818    0.56800    0.47920   1.00
C3a      0.41671    0.58243    0.38072   1.00
H1       0.41682    0.56619    0.35357   1.00
C2       0.41762    0.56257    0.41645   1.00
C2       0.41355    0.91238    0.26743   1.00
C3a      0.41424    0.87747    0.24616   1.00
H1       0.41432    0.84970    0.26131   1.00
C3a      0.41344    0.94833    0.24796   1.00
H1       0.41291    0.97530    0.26449   1.00
C3b      0.41482    0.87812    0.20562   1.00
C5       0.41555    0.84004    0.18356   1.00
H2       0.44212    0.83840    0.16516   1.00
H2       0.41554    0.81443    0.20339   1.00
H2       0.38956    0.83783    0.16440   1.00
C3b      0.41401    0.94976    0.20744   1.00
C5       0.41387    0.98891    0.18733   1.00
H2       0.38783    0.99151    0.16830   1.00
H2       0.41330    1.01348    0.20845   1.00
H2       0.44039    0.99208    0.16906   1.00
C4       0.41470    0.91446    0.18627   1.00
C4       0.41530    0.91554    0.14373   1.00
C3b      0.45142    0.91645    0.12399   1.00
C5       0.48974    0.91633    0.14563   1.00
H2       0.49218    0.88960    0.16371   1.00
H2       0.51512    0.91713    0.12551   1.00
H2       0.49159    0.94216    0.16505   1.00
C3b      0.37976    0.91567    0.12296   1.00
C5       0.34084    0.91471    0.14348   1.00
H2       0.33787    0.94048    0.16283   1.00
H2       0.31603    0.91496    0.12265   1.00
H2       0.33846    0.88793    0.16150   1.00
C3a      0.45160    0.91748    0.08345   1.00
H1       0.47920    0.91818    0.06800   1.00
C3a      0.38072    0.91671    0.08243   1.00
H1       0.35357    0.91682    0.06619   1.00
C2       0.41645    0.91762    0.06257   1.00
C2       0.91355    0.41762    0.56257   1.00
C3a      0.91424    0.45253    0.58384   1.00
H1       0.91432    0.48030    0.56869   1.00
C3a      0.91344    0.38167    0.58204   1.00
H1       0.91291    0.35470    0.56551   1.00
C3b      0.91482    0.45188    0.62438   1.00
C5       0.91555    0.48996    0.64644   1.00
H2       0.94212    0.49160    0.66484   1.00
H2       0.91554    0.51557    0.62661   1.00
H2       0.88956    0.49217    0.66560   1.00
C3b      0.91401    0.38024    0.62256   1.00
C5       0.91387    0.34109    0.64267   1.00
H2       0.88783    0.33849    0.66170   1.00
H2       0.91330    0.31652    0.62155   1.00
H2       0.94039    0.33792    0.66094   1.00
C4       0.91470    0.41554    0.64373   1.00
C4       0.91530    0.41446    0.68627   1.00
C3b      0.95142    0.41355    0.70601   1.00
C5       0.98974    0.41367    0.68437   1.00
H2       0.99218    0.44040    0.66629   1.00
H2       1.01512    0.41287    0.70449   1.00
H2       0.99159    0.38784    0.66495   1.00
C3b      0.87976    0.41433    0.70704   1.00
C5       0.84084    0.41529    0.68652   1.00
H2       0.83787    0.38952    0.66717   1.00
H2       0.81603    0.41504    0.70735   1.00
H2       0.83846    0.44207    0.66850   1.00
C3a      0.95160    0.41252    0.74655   1.00
H1       0.97920    0.41182    0.76200   1.00
C3a      0.88072    0.41329    0.74757   1.00
H1       0.85357    0.41318    0.76381   1.00
C2       0.91645    0.41238    0.76743   1.00
C2       0.91762    0.56257    0.41355   1.00
C3a      0.95253    0.58384    0.41424   1.00
H1       0.98030    0.56869    0.41432   1.00
C3a      0.88167    0.58204    0.41344   1.00
H1       0.85470    0.56551    0.41291   1.00
C3b      0.95188    0.62438    0.41482   1.00
C5       0.98996    0.64644    0.41555   1.00
H2       0.99160    0.66484    0.44212   1.00
H2       1.01557    0.62661    0.41554   1.00
H2       0.99217    0.66560    0.38956   1.00
C3b      0.88024    0.62256    0.41401   1.00
C5       0.84109    0.64267    0.41387   1.00
H2       0.83849    0.66170    0.38783   1.00
H2       0.81652    0.62155    0.41330   1.00
H2       0.83792    0.66094    0.44039   1.00
C4       0.91554    0.64373    0.41470   1.00
C4       0.91446    0.68627    0.41530   1.00
C3b      0.91355    0.70601    0.45142   1.00
C5       0.91367    0.68437    0.48974   1.00
H2       0.94040    0.66629    0.49218   1.00
H2       0.91287    0.70449    0.51512   1.00
H2       0.88784    0.66495    0.49159   1.00
C3b      0.91433    0.70704    0.37976   1.00
C5       0.91529    0.68652    0.34084   1.00
H2       0.88952    0.66717    0.33787   1.00
H2       0.91504    0.70735    0.31603   1.00
H2       0.94207    0.66850    0.33846   1.00
C3a      0.91252    0.74655    0.45160   1.00
H1       0.91182    0.76200    0.47920   1.00
C3a      0.91329    0.74757    0.38072   1.00
H1       0.91318    0.76381    0.35357   1.00
C2       0.91238    0.76743    0.41645   1.00
C2       0.76743    0.41355    0.41238   1.00
C3a      0.74616    0.41424    0.37747   1.00
H1       0.76131    0.41432    0.34970   1.00
C3a      0.74796    0.41344    0.44833   1.00
H1       0.76449    0.41291    0.47530   1.00
C3b      0.70562    0.41482    0.37812   1.00
C5       0.68356    0.41555    0.34004   1.00
H2       0.66516    0.44212    0.33840   1.00
H2       0.70339    0.41554    0.31443   1.00
H2       0.66440    0.38956    0.33783   1.00
C3b      0.70744    0.41401    0.44976   1.00
C5       0.68733    0.41387    0.48891   1.00
H2       0.66830    0.38783    0.49151   1.00
H2       0.70845    0.41330    0.51348   1.00
H2       0.66906    0.44039    0.49208   1.00
C4       0.68627    0.41470    0.41446   1.00
C4       0.64373    0.41530    0.41554   1.00
C3b      0.62399    0.45142    0.41645   1.00
C5       0.64563    0.48974    0.41633   1.00
H2       0.66371    0.49218    0.38960   1.00
H2       0.62551    0.51512    0.41713   1.00
H2       0.66505    0.49159    0.44216   1.00
C3b      0.62296    0.37976    0.41567   1.00
C5       0.64348    0.34084    0.41471   1.00
H2       0.66283    0.33787    0.44048   1.00
H2       0.62265    0.31603    0.41496   1.00
H2       0.66150    0.33846    0.38793   1.00
C3a      0.58345    0.45160    0.41748   1.00
H1       0.56800    0.47920    0.41818   1.00
C3a      0.58243    0.38072    0.41671   1.00
H1       0.56619    0.35357    0.41682   1.00
C2       0.56257    0.41645    0.41762   1.00
C2       1.06257    0.41355    0.41762   1.00
C3a      1.08384    0.41424    0.45253   1.00
H1       1.06869    0.41432    0.48030   1.00
C3a      1.08204    0.41344    0.38167   1.00
H1       1.06551    0.41291    0.35470   1.00
C3b      1.12438    0.41482    0.45188   1.00
C5       1.14644    0.41555    0.48996   1.00
H2       1.16484    0.44212    0.49160   1.00
H2       1.12661    0.41554    0.51557   1.00
H2       1.16560    0.38956    0.49217   1.00
C3b      1.12256    0.41401    0.38024   1.00
C5       1.14267    0.41387    0.34109   1.00
H2       1.16170    0.38783    0.33849   1.00
H2       1.12155    0.41330    0.31652   1.00
H2       1.16094    0.44039    0.33792   1.00
C4       1.14373    0.41470    0.41554   1.00
C4       1.18627    0.41530    0.41446   1.00
C3b      1.20601    0.45142    0.41355   1.00
C5       1.18437    0.48974    0.41367   1.00
H2       1.16629    0.49218    0.44040   1.00
H2       1.20449    0.51512    0.41287   1.00
H2       1.16495    0.49159    0.38784   1.00
C3b      1.20704    0.37976    0.41433   1.00
C5       1.18652    0.34084    0.41529   1.00
H2       1.16717    0.33787    0.38952   1.00
H2       1.20735    0.31603    0.41504   1.00
H2       1.16850    0.33846    0.44207   1.00
C3a      1.24655    0.45160    0.41252   1.00
H1       1.26200    0.47920    0.41182   1.00
C3a      1.24757    0.38072    0.41329   1.00
H1       1.26381    0.35357    0.41318   1.00
C2       1.26743    0.41645    0.41238   1.00
C2       0.91238    0.26743    0.41355   1.00
C3a      0.87747    0.24616    0.41424   1.00
H1       0.84970    0.26131    0.41432   1.00
C3a      0.94833    0.24796    0.41344   1.00
H1       0.97530    0.26449    0.41291   1.00
C3b      0.87812    0.20562    0.41482   1.00
C5       0.84004    0.18356    0.41555   1.00
H2       0.83840    0.16516    0.44212   1.00
H2       0.81443    0.20339    0.41554   1.00
H2       0.83783    0.16440    0.38956   1.00
C3b      0.94976    0.20744    0.41401   1.00
C5       0.98891    0.18733    0.41387   1.00
H2       0.99151    0.16830    0.38783   1.00
H2       1.01348    0.20845    0.41330   1.00
H2       0.99208    0.16906    0.44039   1.00
C4       0.91446    0.18627    0.41470   1.00
C4       0.91554    0.14373    0.41530   1.00
C3b      0.91645    0.12399    0.45142   1.00
C5       0.91633    0.14563    0.48974   1.00
H2       0.88960    0.16371    0.49218   1.00
H2       0.91713    0.12551    0.51512   1.00
H2       0.94216    0.16505    0.49159   1.00
C3b      0.91567    0.12296    0.37976   1.00
C5       0.91471    0.14348    0.34084   1.00
H2       0.94048    0.16283    0.33787   1.00
H2       0.91496    0.12265    0.31603   1.00
H2       0.88793    0.16150    0.33846   1.00
C3a      0.91748    0.08345    0.45160   1.00
H1       0.91818    0.06800    0.47920   1.00
C3a      0.91671    0.08243    0.38072   1.00
H1       0.91682    0.06619    0.35357   1.00
C2       0.91762    0.06257    0.41645   1.00
C2       0.91355    0.41238    0.26743   1.00
C3a      0.91424    0.37747    0.24616   1.00
H1       0.91432    0.34970    0.26131   1.00
C3a      0.91344    0.44833    0.24796   1.00
H1       0.91291    0.47530    0.26449   1.00
C3b      0.91482    0.37812    0.20562   1.00
C5       0.91555    0.34004    0.18356   1.00
H2       0.94212    0.33840    0.16516   1.00
H2       0.91554    0.31443    0.20339   1.00
H2       0.88956    0.33783    0.16440   1.00
C3b      0.91401    0.44976    0.20744   1.00
C5       0.91387    0.48891    0.18733   1.00
H2       0.88783    0.49151    0.16830   1.00
H2       0.91330    0.51348    0.20845   1.00
H2       0.94039    0.49208    0.16906   1.00
C4       0.91470    0.41446    0.18627   1.00
C4       0.91530    0.41554    0.14373   1.00
C3b      0.95142    0.41645    0.12399   1.00
C5       0.98974    0.41633    0.14563   1.00
H2       0.99218    0.38960    0.16371   1.00
H2       1.01512    0.41713    0.12551   1.00
H2       0.99159    0.44216    0.16505   1.00
C3b      0.87976    0.41567    0.12296   1.00
C5       0.84084    0.41471    0.14348   1.00
H2       0.83787    0.44048    0.16283   1.00
H2       0.81603    0.41496    0.12265   1.00
H2       0.83846    0.38793    0.16150   1.00
C3a      0.95160    0.41748    0.08345   1.00
H1       0.97920    0.41818    0.06800   1.00
C3a      0.88072    0.41671    0.08243   1.00
H1       0.85357    0.41682    0.06619   1.00
C2       0.91645    0.41762    0.06257   1.00
