data_IRMOF10_SG202_interpen_Ligand10cp_label_i.

_audit_creation_method             'generated by an auxiliary program of Tobunporous'

_symmetry_space_group_name_H-M     'P 1'
_symmetry_Int_Tables_number        1
_symmetry_cell_setting             triclinic

_cell_length_a                    34.2800
_cell_length_b                    34.2800
_cell_length_c                    34.2800
_cell_angle_alpha                 90.0000
_cell_angle_beta                  90.0000
_cell_angle_gamma                 90.0000

loop_
_atom_site_label
_atom_site_fract_x
_atom_site_fract_y
_atom_site_fract_z
_atom_site_occupancy
O1       0.75000    0.75000    0.75000   1.00
Zn1      0.71720    0.78280    0.78280   1.00
Zn1      0.78280    0.71720    0.78280   1.00
Zn1      0.78280    0.78280    0.71720   1.00
Zn1      0.71720    0.71720    0.71720   1.00
O2       0.72650    0.77350    0.83820   1.00
O2       0.72650    0.83820    0.77350   1.00
O2       0.66180    0.77350    0.77350   1.00
O2       0.77350    0.72650    0.83820   1.00
O2       0.83820    0.72650    0.77350   1.00
O2       0.77350    0.66180    0.77350   1.00
O2       0.77350    0.83820    0.72650   1.00
O2       0.83820    0.77350    0.72650   1.00
O2       0.77350    0.77350    0.66180   1.00
O2       0.66180    0.72650    0.72650   1.00
O2       0.72650    0.66180    0.72650   1.00
O2       0.72650    0.72650    0.66180   1.00
C1       0.75000    0.75000    0.85520   1.00
C1       0.75000    0.85520    0.75000   1.00
C1       0.64480    0.75000    0.75000   1.00
C1       0.85520    0.75000    0.75000   1.00
C1       0.75000    0.64480    0.75000   1.00
C1       0.75000    0.75000    0.64480   1.00
O1       0.25000    0.25000    0.75000   1.00
Zn1      0.21720    0.28280    0.78280   1.00
Zn1      0.28280    0.21720    0.78280   1.00
Zn1      0.28280    0.28280    0.71720   1.00
Zn1      0.21720    0.21720    0.71720   1.00
O2       0.22650    0.27350    0.83820   1.00
O2       0.22650    0.33820    0.77350   1.00
O2       0.16180    0.27350    0.77350   1.00
O2       0.27350    0.22650    0.83820   1.00
O2       0.33820    0.22650    0.77350   1.00
O2       0.27350    0.16180    0.77350   1.00
O2       0.27350    0.33820    0.72650   1.00
O2       0.33820    0.27350    0.72650   1.00
O2       0.27350    0.27350    0.66180   1.00
O2       0.16180    0.22650    0.72650   1.00
O2       0.22650    0.16180    0.72650   1.00
O2       0.22650    0.22650    0.66180   1.00
C1       0.25000    0.25000    0.85520   1.00
C1       0.25000    0.35520    0.75000   1.00
C1       0.14480    0.25000    0.75000   1.00
C1       0.35520    0.25000    0.75000   1.00
C1       0.25000    0.14480    0.75000   1.00
C1       0.25000    0.25000    0.64480   1.00
O1       0.25000    0.75000    0.25000   1.00
Zn1      0.21720    0.78280    0.28280   1.00
Zn1      0.28280    0.71720    0.28280   1.00
Zn1      0.28280    0.78280    0.21720   1.00
Zn1      0.21720    0.71720    0.21720   1.00
O2       0.22650    0.77350    0.33820   1.00
O2       0.22650    0.83820    0.27350   1.00
O2       0.16180    0.77350    0.27350   1.00
O2       0.27350    0.72650    0.33820   1.00
O2       0.33820    0.72650    0.27350   1.00
O2       0.27350    0.66180    0.27350   1.00
O2       0.27350    0.83820    0.22650   1.00
O2       0.33820    0.77350    0.22650   1.00
O2       0.27350    0.77350    0.16180   1.00
O2       0.16180    0.72650    0.22650   1.00
O2       0.22650    0.66180    0.22650   1.00
O2       0.22650    0.72650    0.16180   1.00
C1       0.25000    0.75000    0.35520   1.00
C1       0.25000    0.85520    0.25000   1.00
C1       0.14480    0.75000    0.25000   1.00
C1       0.35520    0.75000    0.25000   1.00
C1       0.25000    0.64480    0.25000   1.00
C1       0.25000    0.75000    0.14480   1.00
O1       0.75000    0.25000    0.25000   1.00
Zn1      0.71720    0.28280    0.28280   1.00
Zn1      0.78280    0.21720    0.28280   1.00
Zn1      0.78280    0.28280    0.21720   1.00
Zn1      0.71720    0.21720    0.21720   1.00
O2       0.72650    0.27350    0.33820   1.00
O2       0.72650    0.33820    0.27350   1.00
O2       0.66180    0.27350    0.27350   1.00
O2       0.77350    0.22650    0.33820   1.00
O2       0.83820    0.22650    0.27350   1.00
O2       0.77350    0.16180    0.27350   1.00
O2       0.77350    0.33820    0.22650   1.00
O2       0.83820    0.27350    0.22650   1.00
O2       0.77350    0.27350    0.16180   1.00
O2       0.66180    0.22650    0.22650   1.00
O2       0.72650    0.16180    0.22650   1.00
O2       0.72650    0.22650    0.16180   1.00
C1       0.75000    0.25000    0.35520   1.00
C1       0.75000    0.35520    0.25000   1.00
C1       0.64480    0.25000    0.25000   1.00
C1       0.85520    0.25000    0.25000   1.00
C1       0.75000    0.14480    0.25000   1.00
C1       0.75000    0.25000    0.14480   1.00
O1       0.25000    0.25000    0.25000   1.00
Zn1      0.28280    0.21720    0.21720   1.00
Zn1      0.21720    0.28280    0.21720   1.00
Zn1      0.21720    0.21720    0.28280   1.00
Zn1      0.28280    0.28280    0.28280   1.00
O2       0.27350    0.22650    0.16180   1.00
O2       0.27350    0.16180    0.22650   1.00
O2       0.33820    0.22650    0.22650   1.00
O2       0.22650    0.27350    0.16180   1.00
O2       0.16180    0.27350    0.22650   1.00
O2       0.22650    0.33820    0.22650   1.00
O2       0.22650    0.16180    0.27350   1.00
O2       0.16180    0.22650    0.27350   1.00
O2       0.22650    0.22650    0.33820   1.00
O2       0.33820    0.27350    0.27350   1.00
O2       0.27350    0.33820    0.27350   1.00
O2       0.27350    0.27350    0.33820   1.00
C1       0.25000    0.25000    0.14480   1.00
C1       0.25000    0.14480    0.25000   1.00
C1       0.35520    0.25000    0.25000   1.00
C1       0.14480    0.25000    0.25000   1.00
C1       0.25000    0.35520    0.25000   1.00
C1       0.25000    0.25000    0.35520   1.00
O1       0.75000    0.75000    0.25000   1.00
Zn1      0.78280    0.71720    0.21720   1.00
Zn1      0.71720    0.78280    0.21720   1.00
Zn1      0.71720    0.71720    0.28280   1.00
Zn1      0.78280    0.78280    0.28280   1.00
O2       0.77350    0.72650    0.16180   1.00
O2       0.77350    0.66180    0.22650   1.00
O2       0.83820    0.72650    0.22650   1.00
O2       0.72650    0.77350    0.16180   1.00
O2       0.66180    0.77350    0.22650   1.00
O2       0.72650    0.83820    0.22650   1.00
O2       0.72650    0.66180    0.27350   1.00
O2       0.66180    0.72650    0.27350   1.00
O2       0.72650    0.72650    0.33820   1.00
O2       0.83820    0.77350    0.27350   1.00
O2       0.77350    0.83820    0.27350   1.00
O2       0.77350    0.77350    0.33820   1.00
C1       0.75000    0.75000    0.14480   1.00
C1       0.75000    0.64480    0.25000   1.00
C1       0.85520    0.75000    0.25000   1.00
C1       0.64480    0.75000    0.25000   1.00
C1       0.75000    0.85520    0.25000   1.00
C1       0.75000    0.75000    0.35520   1.00
O1       0.75000    0.25000    0.75000   1.00
Zn1      0.78280    0.21720    0.71720   1.00
Zn1      0.71720    0.28280    0.71720   1.00
Zn1      0.71720    0.21720    0.78280   1.00
Zn1      0.78280    0.28280    0.78280   1.00
O2       0.77350    0.22650    0.66180   1.00
O2       0.77350    0.16180    0.72650   1.00
O2       0.83820    0.22650    0.72650   1.00
O2       0.72650    0.27350    0.66180   1.00
O2       0.66180    0.27350    0.72650   1.00
O2       0.72650    0.33820    0.72650   1.00
O2       0.72650    0.16180    0.77350   1.00
O2       0.66180    0.22650    0.77350   1.00
O2       0.72650    0.22650    0.83820   1.00
O2       0.83820    0.27350    0.77350   1.00
O2       0.77350    0.33820    0.77350   1.00
O2       0.77350    0.27350    0.83820   1.00
C1       0.75000    0.25000    0.64480   1.00
C1       0.75000    0.14480    0.75000   1.00
C1       0.85520    0.25000    0.75000   1.00
C1       0.64480    0.25000    0.75000   1.00
C1       0.75000    0.35520    0.75000   1.00
C1       0.75000    0.25000    0.85520   1.00
O1       0.25000    0.75000    0.75000   1.00
Zn1      0.28280    0.71720    0.71720   1.00
Zn1      0.21720    0.78280    0.71720   1.00
Zn1      0.21720    0.71720    0.78280   1.00
Zn1      0.28280    0.78280    0.78280   1.00
O2       0.27350    0.72650    0.66180   1.00
O2       0.27350    0.66180    0.72650   1.00
O2       0.33820    0.72650    0.72650   1.00
O2       0.22650    0.77350    0.66180   1.00
O2       0.16180    0.77350    0.72650   1.00
O2       0.22650    0.83820    0.72650   1.00
O2       0.22650    0.66180    0.77350   1.00
O2       0.16180    0.72650    0.77350   1.00
O2       0.22650    0.72650    0.83820   1.00
O2       0.33820    0.77350    0.77350   1.00
O2       0.27350    0.83820    0.77350   1.00
O2       0.27350    0.77350    0.83820   1.00
C1       0.25000    0.75000    0.64480   1.00
C1       0.25000    0.64480    0.75000   1.00
C1       0.35520    0.75000    0.75000   1.00
C1       0.14480    0.75000    0.75000   1.00
C1       0.25000    0.85520    0.75000   1.00
C1       0.25000    0.75000    0.85520   1.00
O1       0.91500    0.91500    0.91500   1.00
Zn1      0.88220    0.94780    0.94780   1.00
Zn1      0.94780    0.88220    0.94780   1.00
Zn1      0.94780    0.94780    0.88220   1.00
Zn1      0.88220    0.88220    0.88220   1.00
O2       0.89150    0.93850    1.00320   1.00
O2       0.89150    1.00320    0.93850   1.00
O2       0.82680    0.93850    0.93850   1.00
O2       0.93850    0.89150    1.00320   1.00
O2       1.00320    0.89150    0.93850   1.00
O2       0.93850    0.82680    0.93850   1.00
O2       0.93850    1.00320    0.89150   1.00
O2       1.00320    0.93850    0.89150   1.00
O2       0.93850    0.93850    0.82680   1.00
O2       0.82680    0.89150    0.89150   1.00
O2       0.89150    0.82680    0.89150   1.00
O2       0.89150    0.89150    0.82680   1.00
C1       0.91500    0.91500    1.02020   1.00
C1       0.91500    1.02020    0.91500   1.00
C1       0.80980    0.91500    0.91500   1.00
C1       1.02020    0.91500    0.91500   1.00
C1       0.91500    0.80980    0.91500   1.00
C1       0.91500    0.91500    0.80980   1.00
O1       0.41500    0.41500    0.91500   1.00
Zn1      0.38220    0.44780    0.94780   1.00
Zn1      0.44780    0.38220    0.94780   1.00
Zn1      0.44780    0.44780    0.88220   1.00
Zn1      0.38220    0.38220    0.88220   1.00
O2       0.39150    0.43850    1.00320   1.00
O2       0.39150    0.50320    0.93850   1.00
O2       0.32680    0.43850    0.93850   1.00
O2       0.43850    0.39150    1.00320   1.00
O2       0.50320    0.39150    0.93850   1.00
O2       0.43850    0.32680    0.93850   1.00
O2       0.43850    0.50320    0.89150   1.00
O2       0.50320    0.43850    0.89150   1.00
O2       0.43850    0.43850    0.82680   1.00
O2       0.32680    0.39150    0.89150   1.00
O2       0.39150    0.32680    0.89150   1.00
O2       0.39150    0.39150    0.82680   1.00
C1       0.41500    0.41500    1.02020   1.00
C1       0.41500    0.52020    0.91500   1.00
C1       0.30980    0.41500    0.91500   1.00
C1       0.52020    0.41500    0.91500   1.00
C1       0.41500    0.30980    0.91500   1.00
C1       0.41500    0.41500    0.80980   1.00
O1       0.41500    0.91500    0.41500   1.00
Zn1      0.38220    0.94780    0.44780   1.00
Zn1      0.44780    0.88220    0.44780   1.00
Zn1      0.44780    0.94780    0.38220   1.00
Zn1      0.38220    0.88220    0.38220   1.00
O2       0.39150    0.93850    0.50320   1.00
O2       0.39150    1.00320    0.43850   1.00
O2       0.32680    0.93850    0.43850   1.00
O2       0.43850    0.89150    0.50320   1.00
O2       0.50320    0.89150    0.43850   1.00
O2       0.43850    0.82680    0.43850   1.00
O2       0.43850    1.00320    0.39150   1.00
O2       0.50320    0.93850    0.39150   1.00
O2       0.43850    0.93850    0.32680   1.00
O2       0.32680    0.89150    0.39150   1.00
O2       0.39150    0.82680    0.39150   1.00
O2       0.39150    0.89150    0.32680   1.00
C1       0.41500    0.91500    0.52020   1.00
C1       0.41500    1.02020    0.41500   1.00
C1       0.30980    0.91500    0.41500   1.00
C1       0.52020    0.91500    0.41500   1.00
C1       0.41500    0.80980    0.41500   1.00
C1       0.41500    0.91500    0.30980   1.00
O1       0.91500    0.41500    0.41500   1.00
Zn1      0.88220    0.44780    0.44780   1.00
Zn1      0.94780    0.38220    0.44780   1.00
Zn1      0.94780    0.44780    0.38220   1.00
Zn1      0.88220    0.38220    0.38220   1.00
O2       0.89150    0.43850    0.50320   1.00
O2       0.89150    0.50320    0.43850   1.00
O2       0.82680    0.43850    0.43850   1.00
O2       0.93850    0.39150    0.50320   1.00
O2       1.00320    0.39150    0.43850   1.00
O2       0.93850    0.32680    0.43850   1.00
O2       0.93850    0.50320    0.39150   1.00
O2       1.00320    0.43850    0.39150   1.00
O2       0.93850    0.43850    0.32680   1.00
O2       0.82680    0.39150    0.39150   1.00
O2       0.89150    0.32680    0.39150   1.00
O2       0.89150    0.39150    0.32680   1.00
C1       0.91500    0.41500    0.52020   1.00
C1       0.91500    0.52020    0.41500   1.00
C1       0.80980    0.41500    0.41500   1.00
C1       1.02020    0.41500    0.41500   1.00
C1       0.91500    0.30980    0.41500   1.00
C1       0.91500    0.41500    0.30980   1.00
O1       0.41500    0.41500    0.41500   1.00
Zn1      0.44780    0.38220    0.38220   1.00
Zn1      0.38220    0.44780    0.38220   1.00
Zn1      0.38220    0.38220    0.44780   1.00
Zn1      0.44780    0.44780    0.44780   1.00
O2       0.43850    0.39150    0.32680   1.00
O2       0.43850    0.32680    0.39150   1.00
O2       0.50320    0.39150    0.39150   1.00
O2       0.39150    0.43850    0.32680   1.00
O2       0.32680    0.43850    0.39150   1.00
O2       0.39150    0.50320    0.39150   1.00
O2       0.39150    0.32680    0.43850   1.00
O2       0.32680    0.39150    0.43850   1.00
O2       0.39150    0.39150    0.50320   1.00
O2       0.50320    0.43850    0.43850   1.00
O2       0.43850    0.50320    0.43850   1.00
O2       0.43850    0.43850    0.50320   1.00
C1       0.41500    0.41500    0.30980   1.00
C1       0.41500    0.30980    0.41500   1.00
C1       0.52020    0.41500    0.41500   1.00
C1       0.30980    0.41500    0.41500   1.00
C1       0.41500    0.52020    0.41500   1.00
C1       0.41500    0.41500    0.52020   1.00
O1       0.91500    0.91500    0.41500   1.00
Zn1      0.94780    0.88220    0.38220   1.00
Zn1      0.88220    0.94780    0.38220   1.00
Zn1      0.88220    0.88220    0.44780   1.00
Zn1      0.94780    0.94780    0.44780   1.00
O2       0.93850    0.89150    0.32680   1.00
O2       0.93850    0.82680    0.39150   1.00
O2       1.00320    0.89150    0.39150   1.00
O2       0.89150    0.93850    0.32680   1.00
O2       0.82680    0.93850    0.39150   1.00
O2       0.89150    1.00320    0.39150   1.00
O2       0.89150    0.82680    0.43850   1.00
O2       0.82680    0.89150    0.43850   1.00
O2       0.89150    0.89150    0.50320   1.00
O2       1.00320    0.93850    0.43850   1.00
O2       0.93850    1.00320    0.43850   1.00
O2       0.93850    0.93850    0.50320   1.00
C1       0.91500    0.91500    0.30980   1.00
C1       0.91500    0.80980    0.41500   1.00
C1       1.02020    0.91500    0.41500   1.00
C1       0.80980    0.91500    0.41500   1.00
C1       0.91500    1.02020    0.41500   1.00
C1       0.91500    0.91500    0.52020   1.00
O1       0.91500    0.41500    0.91500   1.00
Zn1      0.94780    0.38220    0.88220   1.00
Zn1      0.88220    0.44780    0.88220   1.00
Zn1      0.88220    0.38220    0.94780   1.00
Zn1      0.94780    0.44780    0.94780   1.00
O2       0.93850    0.39150    0.82680   1.00
O2       0.93850    0.32680    0.89150   1.00
O2       1.00320    0.39150    0.89150   1.00
O2       0.89150    0.43850    0.82680   1.00
O2       0.82680    0.43850    0.89150   1.00
O2       0.89150    0.50320    0.89150   1.00
O2       0.89150    0.32680    0.93850   1.00
O2       0.82680    0.39150    0.93850   1.00
O2       0.89150    0.39150    1.00320   1.00
O2       1.00320    0.43850    0.93850   1.00
O2       0.93850    0.50320    0.93850   1.00
O2       0.93850    0.43850    1.00320   1.00
C1       0.91500    0.41500    0.80980   1.00
C1       0.91500    0.30980    0.91500   1.00
C1       1.02020    0.41500    0.91500   1.00
C1       0.80980    0.41500    0.91500   1.00
C1       0.91500    0.52020    0.91500   1.00
C1       0.91500    0.41500    1.02020   1.00
O1       0.41500    0.91500    0.91500   1.00
Zn1      0.44780    0.88220    0.88220   1.00
Zn1      0.38220    0.94780    0.88220   1.00
Zn1      0.38220    0.88220    0.94780   1.00
Zn1      0.44780    0.94780    0.94780   1.00
O2       0.43850    0.89150    0.82680   1.00
O2       0.43850    0.82680    0.89150   1.00
O2       0.50320    0.89150    0.89150   1.00
O2       0.39150    0.93850    0.82680   1.00
O2       0.32680    0.93850    0.89150   1.00
O2       0.39150    1.00320    0.89150   1.00
O2       0.39150    0.82680    0.93850   1.00
O2       0.32680    0.89150    0.93850   1.00
O2       0.39150    0.89150    1.00320   1.00
O2       0.50320    0.93850    0.93850   1.00
O2       0.43850    1.00320    0.93850   1.00
O2       0.43850    0.93850    1.00320   1.00
C1       0.41500    0.91500    0.80980   1.00
C1       0.41500    0.80980    0.91500   1.00
C1       0.52020    0.91500    0.91500   1.00
C1       0.30980    0.91500    0.91500   1.00
C1       0.41500    1.02020    0.91500   1.00
C1       0.41500    0.91500    1.02020   1.00
C4       0.75036    0.75013    0.97915   1.00
C4       0.74964    0.74987    1.02085   1.00
C3       0.77390    0.72398    0.95751   1.00
C3       0.75039    0.71474    1.04252   1.00
C3       0.72679    0.77615    0.95738   1.00
C3       0.74903    0.78498    1.04259   1.00
C2       0.75006    0.74985    0.89482   1.00
C2       0.75006    0.74985    1.10518   1.00
C3a      0.77387    0.72373    0.91599   1.00
C3       0.75058    0.71481    1.08382   1.00
C3       0.72668    0.77595    0.91611   1.00
C3a      0.74921    0.78518    1.08403   1.00
H1       0.79267    0.70381    0.97294   1.00
H1       0.75047    0.68695    1.02750   1.00
C5       0.79946    0.69557    0.89410   1.00
H1       0.75111    0.68729    1.09933   1.00
H1       0.70800    0.79612    0.90056   1.00
C5       0.74849    0.82357    1.10535   1.00
H1       0.74956    0.81269    1.02747   1.00
H1       0.70762    0.79634    0.97230   1.00
H2       0.72069    0.83876    1.09837   1.00
H2       0.74914    0.81910    1.13747   1.00
N1       0.78182    0.84767    1.09395   1.00
C6       0.78896    0.86206    1.05810   1.00
C6       0.81078    0.85984    1.11757   1.00
C6       0.82299    0.88354    1.05873   1.00
C6       0.83687    0.88212    1.09656   1.00
H3       0.77060    0.85735    1.03281   1.00
H3       0.81296    0.85285    1.14831   1.00
H3       0.83620    0.89861    1.03436   1.00
H3       0.86306    0.89581    1.10758   1.00
H2       0.79474    0.69965    0.86228   1.00
H2       0.83083    0.70125    0.90001   1.00
N1       0.79029    0.65550    0.90523   1.00
C6       0.77627    0.62517    0.88078   1.00
C6       0.79375    0.63850    0.94285   1.00
C6       0.77152    0.59175    0.90277   1.00
C6       0.78224    0.59994    0.94091   1.00
H3       0.77024    0.62808    0.84992   1.00
H3       0.80348    0.65373    0.96876   1.00
H3       0.76114    0.56396    0.89205   1.00
H3       0.78161    0.57965    0.96505   1.00
C4       0.75013    0.97915    0.75036   1.00
C4       0.74987    1.02085    0.74964   1.00
C3       0.72398    0.95751    0.77390   1.00
C3       0.71474    1.04252    0.75039   1.00
C3       0.77615    0.95738    0.72679   1.00
C3       0.78498    1.04259    0.74903   1.00
C2       0.74985    0.89482    0.75006   1.00
C2       0.74985    1.10518    0.75006   1.00
C3a      0.72373    0.91599    0.77387   1.00
C3       0.71481    1.08382    0.75058   1.00
C3       0.77595    0.91611    0.72668   1.00
C3a      0.78518    1.08403    0.74921   1.00
H1       0.70381    0.97294    0.79267   1.00
H1       0.68695    1.02750    0.75047   1.00
C5       0.69557    0.89410    0.79946   1.00
H1       0.68729    1.09933    0.75111   1.00
H1       0.79612    0.90056    0.70800   1.00
C5       0.82357    1.10535    0.74849   1.00
H1       0.81269    1.02747    0.74956   1.00
H1       0.79634    0.97230    0.70762   1.00
H2       0.83876    1.09837    0.72069   1.00
H2       0.81910    1.13747    0.74914   1.00
N1       0.84767    1.09395    0.78182   1.00
C6       0.86206    1.05810    0.78896   1.00
C6       0.85984    1.11757    0.81078   1.00
C6       0.88354    1.05873    0.82299   1.00
C6       0.88212    1.09656    0.83687   1.00
H3       0.85735    1.03281    0.77060   1.00
H3       0.85285    1.14831    0.81296   1.00
H3       0.89861    1.03436    0.83620   1.00
H3       0.89581    1.10758    0.86306   1.00
H2       0.69965    0.86228    0.79474   1.00
H2       0.70125    0.90001    0.83083   1.00
N1       0.65550    0.90523    0.79029   1.00
C6       0.62517    0.88078    0.77627   1.00
C6       0.63850    0.94285    0.79375   1.00
C6       0.59175    0.90277    0.77152   1.00
C6       0.59994    0.94091    0.78224   1.00
H3       0.62808    0.84992    0.77024   1.00
H3       0.65373    0.96876    0.80348   1.00
H3       0.56396    0.89205    0.76114   1.00
H3       0.57965    0.96505    0.78161   1.00
C4       0.52085    0.75036    0.74987   1.00
C4       0.47915    0.74964    0.75013   1.00
C3       0.54249    0.77390    0.77602   1.00
C3       0.45748    0.75039    0.78526   1.00
C3       0.54262    0.72679    0.72385   1.00
C3       0.45741    0.74903    0.71502   1.00
C2       0.60518    0.75006    0.75015   1.00
C2       0.39482    0.75006    0.75015   1.00
C3a      0.58401    0.77387    0.77627   1.00
C3       0.41618    0.75058    0.78519   1.00
C3       0.58389    0.72668    0.72405   1.00
C3a      0.41597    0.74921    0.71482   1.00
H1       0.52706    0.79267    0.79619   1.00
H1       0.47250    0.75047    0.81305   1.00
C5       0.60590    0.79946    0.80443   1.00
H1       0.40067    0.75111    0.81271   1.00
H1       0.59944    0.70800    0.70388   1.00
C5       0.39465    0.74849    0.67643   1.00
H1       0.47253    0.74956    0.68731   1.00
H1       0.52770    0.70762    0.70366   1.00
H2       0.40163    0.72069    0.66124   1.00
H2       0.36253    0.74914    0.68090   1.00
N1       0.40605    0.78182    0.65233   1.00
C6       0.44190    0.78896    0.63794   1.00
C6       0.38243    0.81078    0.64016   1.00
C6       0.44127    0.82299    0.61646   1.00
C6       0.40344    0.83687    0.61788   1.00
H3       0.46719    0.77060    0.64265   1.00
H3       0.35169    0.81296    0.64715   1.00
H3       0.46564    0.83620    0.60139   1.00
H3       0.39242    0.86306    0.60419   1.00
H2       0.63772    0.79474    0.80035   1.00
H2       0.59999    0.83083    0.79875   1.00
N1       0.59477    0.79029    0.84450   1.00
C6       0.61922    0.77627    0.87483   1.00
C6       0.55715    0.79375    0.86150   1.00
C6       0.59723    0.77152    0.90825   1.00
C6       0.55909    0.78224    0.90006   1.00
H3       0.65008    0.77024    0.87192   1.00
H3       0.53124    0.80348    0.84627   1.00
H3       0.60795    0.76114    0.93604   1.00
H3       0.53495    0.78161    0.92035   1.00
C4       0.97915    0.75036    0.75013   1.00
C4       1.02085    0.74964    0.74987   1.00
C3       0.95751    0.77390    0.72398   1.00
C3       1.04252    0.75039    0.71474   1.00
C3       0.95738    0.72679    0.77615   1.00
C3       1.04259    0.74903    0.78498   1.00
C2       0.89482    0.75006    0.74985   1.00
C2       1.10518    0.75006    0.74985   1.00
C3a      0.91599    0.77387    0.72373   1.00
C3       1.08382    0.75058    0.71481   1.00
C3       0.91611    0.72668    0.77595   1.00
C3a      1.08403    0.74921    0.78518   1.00
H1       0.97294    0.79267    0.70381   1.00
H1       1.02750    0.75047    0.68695   1.00
C5       0.89410    0.79946    0.69557   1.00
H1       1.09933    0.75111    0.68729   1.00
H1       0.90056    0.70800    0.79612   1.00
C5       1.10535    0.74849    0.82357   1.00
H1       1.02747    0.74956    0.81269   1.00
H1       0.97230    0.70762    0.79634   1.00
H2       1.09837    0.72069    0.83876   1.00
H2       1.13747    0.74914    0.81910   1.00
N1       1.09395    0.78182    0.84767   1.00
C6       1.05810    0.78896    0.86206   1.00
C6       1.11757    0.81078    0.85984   1.00
C6       1.05873    0.82299    0.88354   1.00
C6       1.09656    0.83687    0.88212   1.00
H3       1.03281    0.77060    0.85735   1.00
H3       1.14831    0.81296    0.85285   1.00
H3       1.03436    0.83620    0.89861   1.00
H3       1.10758    0.86306    0.89581   1.00
H2       0.86228    0.79474    0.69965   1.00
H2       0.90001    0.83083    0.70125   1.00
N1       0.90523    0.79029    0.65550   1.00
C6       0.88078    0.77627    0.62517   1.00
C6       0.94285    0.79375    0.63850   1.00
C6       0.90277    0.77152    0.59175   1.00
C6       0.94091    0.78224    0.59994   1.00
H3       0.84992    0.77024    0.62808   1.00
H3       0.96876    0.80348    0.65373   1.00
H3       0.89205    0.76114    0.56396   1.00
H3       0.96505    0.78161    0.57965   1.00
C4       0.74987    0.52085    0.75036   1.00
C4       0.75013    0.47915    0.74964   1.00
C3       0.77602    0.54249    0.77390   1.00
C3       0.78526    0.45748    0.75039   1.00
C3       0.72385    0.54262    0.72679   1.00
C3       0.71502    0.45741    0.74903   1.00
C2       0.75015    0.60518    0.75006   1.00
C2       0.75015    0.39482    0.75006   1.00
C3a      0.77627    0.58401    0.77387   1.00
C3       0.78519    0.41618    0.75058   1.00
C3       0.72405    0.58389    0.72668   1.00
C3a      0.71482    0.41597    0.74921   1.00
H1       0.79619    0.52706    0.79267   1.00
H1       0.81305    0.47250    0.75047   1.00
C5       0.80443    0.60590    0.79946   1.00
H1       0.81271    0.40067    0.75111   1.00
H1       0.70388    0.59944    0.70800   1.00
C5       0.67643    0.39465    0.74849   1.00
H1       0.68731    0.47253    0.74956   1.00
H1       0.70366    0.52770    0.70762   1.00
H2       0.66124    0.40163    0.72069   1.00
H2       0.68090    0.36253    0.74914   1.00
N1       0.65233    0.40605    0.78182   1.00
C6       0.63794    0.44190    0.78896   1.00
C6       0.64016    0.38243    0.81078   1.00
C6       0.61646    0.44127    0.82299   1.00
C6       0.61788    0.40344    0.83687   1.00
H3       0.64265    0.46719    0.77060   1.00
H3       0.64715    0.35169    0.81296   1.00
H3       0.60139    0.46564    0.83620   1.00
H3       0.60419    0.39242    0.86306   1.00
H2       0.80035    0.63772    0.79474   1.00
H2       0.79875    0.59999    0.83083   1.00
N1       0.84450    0.59477    0.79029   1.00
C6       0.87483    0.61922    0.77627   1.00
C6       0.86150    0.55715    0.79375   1.00
C6       0.90825    0.59723    0.77152   1.00
C6       0.90006    0.55909    0.78224   1.00
H3       0.87192    0.65008    0.77024   1.00
H3       0.84627    0.53124    0.80348   1.00
H3       0.93604    0.60795    0.76114   1.00
H3       0.92035    0.53495    0.78161   1.00
C4       0.75036    0.74987    0.52085   1.00
C4       0.74964    0.75013    0.47915   1.00
C3       0.77390    0.77602    0.54249   1.00
C3       0.75039    0.78526    0.45748   1.00
C3       0.72679    0.72385    0.54262   1.00
C3       0.74903    0.71502    0.45741   1.00
C2       0.75006    0.75015    0.60518   1.00
C2       0.75006    0.75015    0.39482   1.00
C3a      0.77387    0.77627    0.58401   1.00
C3       0.75058    0.78519    0.41618   1.00
C3       0.72668    0.72405    0.58389   1.00
C3a      0.74921    0.71482    0.41597   1.00
H1       0.79267    0.79619    0.52706   1.00
H1       0.75047    0.81305    0.47250   1.00
C5       0.79946    0.80443    0.60590   1.00
H1       0.75111    0.81271    0.40067   1.00
H1       0.70800    0.70388    0.59944   1.00
C5       0.74849    0.67643    0.39465   1.00
H1       0.74956    0.68731    0.47253   1.00
H1       0.70762    0.70366    0.52770   1.00
H2       0.72069    0.66124    0.40163   1.00
H2       0.74914    0.68090    0.36253   1.00
N1       0.78182    0.65233    0.40605   1.00
C6       0.78896    0.63794    0.44190   1.00
C6       0.81078    0.64016    0.38243   1.00
C6       0.82299    0.61646    0.44127   1.00
C6       0.83687    0.61788    0.40344   1.00
H3       0.77060    0.64265    0.46719   1.00
H3       0.81296    0.64715    0.35169   1.00
H3       0.83620    0.60139    0.46564   1.00
H3       0.86306    0.60419    0.39242   1.00
H2       0.79474    0.80035    0.63772   1.00
H2       0.83083    0.79875    0.59999   1.00
N1       0.79029    0.84450    0.59477   1.00
C6       0.77627    0.87483    0.61922   1.00
C6       0.79375    0.86150    0.55715   1.00
C6       0.77152    0.90825    0.59723   1.00
C6       0.78224    0.90006    0.55909   1.00
H3       0.77024    0.87192    0.65008   1.00
H3       0.80348    0.84627    0.53124   1.00
H3       0.76114    0.93604    0.60795   1.00
H3       0.78161    0.92035    0.53495   1.00
C4       0.25036    0.25013    0.97915   1.00
C4       0.24964    0.24987    1.02085   1.00
C3       0.27390    0.22398    0.95751   1.00
C3       0.25039    0.21474    1.04252   1.00
C3       0.22679    0.27615    0.95738   1.00
C3       0.24903    0.28498    1.04259   1.00
C2       0.25006    0.24985    0.89482   1.00
C2       0.25006    0.24985    1.10518   1.00
C3a      0.27387    0.22373    0.91599   1.00
C3       0.25058    0.21481    1.08382   1.00
C3       0.22668    0.27595    0.91611   1.00
C3a      0.24921    0.28518    1.08403   1.00
H1       0.29267    0.20381    0.97294   1.00
H1       0.25047    0.18695    1.02750   1.00
C5       0.29946    0.19557    0.89410   1.00
H1       0.25111    0.18729    1.09933   1.00
H1       0.20800    0.29612    0.90056   1.00
C5       0.24849    0.32357    1.10535   1.00
H1       0.24956    0.31269    1.02747   1.00
H1       0.20762    0.29634    0.97230   1.00
H2       0.22069    0.33876    1.09837   1.00
H2       0.24914    0.31910    1.13747   1.00
N1       0.28182    0.34767    1.09395   1.00
C6       0.28896    0.36206    1.05810   1.00
C6       0.31078    0.35984    1.11757   1.00
C6       0.32299    0.38354    1.05873   1.00
C6       0.33687    0.38212    1.09656   1.00
H3       0.27060    0.35735    1.03281   1.00
H3       0.31296    0.35285    1.14831   1.00
H3       0.33620    0.39861    1.03436   1.00
H3       0.36306    0.39581    1.10758   1.00
H2       0.29474    0.19965    0.86228   1.00
H2       0.33083    0.20125    0.90001   1.00
N1       0.29029    0.15550    0.90523   1.00
C6       0.27627    0.12517    0.88078   1.00
C6       0.29375    0.13850    0.94285   1.00
C6       0.27152    0.09175    0.90277   1.00
C6       0.28224    0.09994    0.94091   1.00
H3       0.27024    0.12808    0.84992   1.00
H3       0.30348    0.15373    0.96876   1.00
H3       0.26114    0.06396    0.89205   1.00
H3       0.28161    0.07965    0.96505   1.00
C4       0.25013    0.47915    0.75036   1.00
C4       0.24987    0.52085    0.74964   1.00
C3       0.22398    0.45751    0.77390   1.00
C3       0.21474    0.54252    0.75039   1.00
C3       0.27615    0.45738    0.72679   1.00
C3       0.28498    0.54259    0.74903   1.00
C2       0.24985    0.39482    0.75006   1.00
C2       0.24985    0.60518    0.75006   1.00
C3a      0.22373    0.41599    0.77387   1.00
C3       0.21481    0.58382    0.75058   1.00
C3       0.27595    0.41611    0.72668   1.00
C3a      0.28518    0.58403    0.74921   1.00
H1       0.20381    0.47294    0.79267   1.00
H1       0.18695    0.52750    0.75047   1.00
C5       0.19557    0.39410    0.79946   1.00
H1       0.18729    0.59933    0.75111   1.00
H1       0.29612    0.40056    0.70800   1.00
C5       0.32357    0.60535    0.74849   1.00
H1       0.31269    0.52747    0.74956   1.00
H1       0.29634    0.47230    0.70762   1.00
H2       0.33876    0.59837    0.72069   1.00
H2       0.31910    0.63747    0.74914   1.00
N1       0.34767    0.59395    0.78182   1.00
C6       0.36206    0.55810    0.78896   1.00
C6       0.35984    0.61757    0.81078   1.00
C6       0.38354    0.55873    0.82299   1.00
C6       0.38212    0.59656    0.83687   1.00
H3       0.35735    0.53281    0.77060   1.00
H3       0.35285    0.64831    0.81296   1.00
H3       0.39861    0.53436    0.83620   1.00
H3       0.39581    0.60758    0.86306   1.00
H2       0.19965    0.36228    0.79474   1.00
H2       0.20125    0.40001    0.83083   1.00
N1       0.15550    0.40523    0.79029   1.00
C6       0.12517    0.38078    0.77627   1.00
C6       0.13850    0.44285    0.79375   1.00
C6       0.09175    0.40277    0.77152   1.00
C6       0.09994    0.44091    0.78224   1.00
H3       0.12808    0.34992    0.77024   1.00
H3       0.15373    0.46876    0.80348   1.00
H3       0.06396    0.39205    0.76114   1.00
H3       0.07965    0.46505    0.78161   1.00
C4       0.02085    0.25036    0.74987   1.00
C4       -0.02085   0.24964    0.75013   1.00
C3       0.04249    0.27390    0.77602   1.00
C3       -0.04252   0.25039    0.78526   1.00
C3       0.04262    0.22679    0.72385   1.00
C3       -0.04259   0.24903    0.71502   1.00
C2       0.10518    0.25006    0.75015   1.00
C2       -0.10518   0.25006    0.75015   1.00
C3a      0.08401    0.27387    0.77627   1.00
C3       -0.08382   0.25058    0.78519   1.00
C3       0.08389    0.22668    0.72405   1.00
C3a      -0.08403   0.24921    0.71482   1.00
H1       0.02706    0.29267    0.79619   1.00
H1       -0.02750   0.25047    0.81305   1.00
C5       0.10590    0.29946    0.80443   1.00
H1       -0.09933   0.25111    0.81271   1.00
H1       0.09944    0.20800    0.70388   1.00
C5       -0.10535   0.24849    0.67643   1.00
H1       -0.02747   0.24956    0.68731   1.00
H1       0.02770    0.20762    0.70366   1.00
H2       -0.09837   0.22069    0.66124   1.00
H2       -0.13747   0.24914    0.68090   1.00
N1       -0.09395   0.28182    0.65233   1.00
C6       -0.05810   0.28896    0.63794   1.00
C6       -0.11757   0.31078    0.64016   1.00
C6       -0.05873   0.32299    0.61646   1.00
C6       -0.09656   0.33687    0.61788   1.00
H3       -0.03281   0.27060    0.64265   1.00
H3       -0.14831   0.31296    0.64715   1.00
H3       -0.03436   0.33620    0.60139   1.00
H3       -0.10758   0.36306    0.60419   1.00
H2       0.13772    0.29474    0.80035   1.00
H2       0.09999    0.33083    0.79875   1.00
N1       0.09477    0.29029    0.84450   1.00
C6       0.11922    0.27627    0.87483   1.00
C6       0.05715    0.29375    0.86150   1.00
C6       0.09723    0.27152    0.90825   1.00
C6       0.05909    0.28224    0.90006   1.00
H3       0.15008    0.27024    0.87192   1.00
H3       0.03124    0.30348    0.84627   1.00
H3       0.10795    0.26114    0.93604   1.00
H3       0.03495    0.28161    0.92035   1.00
C4       0.47915    0.25036    0.75013   1.00
C4       0.52085    0.24964    0.74987   1.00
C3       0.45751    0.27390    0.72398   1.00
C3       0.54252    0.25039    0.71474   1.00
C3       0.45738    0.22679    0.77615   1.00
C3       0.54259    0.24903    0.78498   1.00
C2       0.39482    0.25006    0.74985   1.00
C2       0.60518    0.25006    0.74985   1.00
C3a      0.41599    0.27387    0.72373   1.00
C3       0.58382    0.25058    0.71481   1.00
C3       0.41611    0.22668    0.77595   1.00
C3a      0.58403    0.24921    0.78518   1.00
H1       0.47294    0.29267    0.70381   1.00
H1       0.52750    0.25047    0.68695   1.00
C5       0.39410    0.29946    0.69557   1.00
H1       0.59933    0.25111    0.68729   1.00
H1       0.40056    0.20800    0.79612   1.00
C5       0.60535    0.24849    0.82357   1.00
H1       0.52747    0.24956    0.81269   1.00
H1       0.47230    0.20762    0.79634   1.00
H2       0.59837    0.22069    0.83876   1.00
H2       0.63747    0.24914    0.81910   1.00
N1       0.59395    0.28182    0.84767   1.00
C6       0.55810    0.28896    0.86206   1.00
C6       0.61757    0.31078    0.85984   1.00
C6       0.55873    0.32299    0.88354   1.00
C6       0.59656    0.33687    0.88212   1.00
H3       0.53281    0.27060    0.85735   1.00
H3       0.64831    0.31296    0.85285   1.00
H3       0.53436    0.33620    0.89861   1.00
H3       0.60758    0.36306    0.89581   1.00
H2       0.36228    0.29474    0.69965   1.00
H2       0.40001    0.33083    0.70125   1.00
N1       0.40523    0.29029    0.65550   1.00
C6       0.38078    0.27627    0.62517   1.00
C6       0.44285    0.29375    0.63850   1.00
C6       0.40277    0.27152    0.59175   1.00
C6       0.44091    0.28224    0.59994   1.00
H3       0.34992    0.27024    0.62808   1.00
H3       0.46876    0.30348    0.65373   1.00
H3       0.39205    0.26114    0.56396   1.00
H3       0.46505    0.28161    0.57965   1.00
C4       0.24987    0.02085    0.75036   1.00
C4       0.25013    -0.02085   0.74964   1.00
C3       0.27602    0.04249    0.77390   1.00
C3       0.28526    -0.04252   0.75039   1.00
C3       0.22385    0.04262    0.72679   1.00
C3       0.21502    -0.04259   0.74903   1.00
C2       0.25015    0.10518    0.75006   1.00
C2       0.25015    -0.10518   0.75006   1.00
C3a      0.27627    0.08401    0.77387   1.00
C3       0.28519    -0.08382   0.75058   1.00
C3       0.22405    0.08389    0.72668   1.00
C3a      0.21482    -0.08403   0.74921   1.00
H1       0.29619    0.02706    0.79267   1.00
H1       0.31305    -0.02750   0.75047   1.00
C5       0.30443    0.10590    0.79946   1.00
H1       0.31271    -0.09933   0.75111   1.00
H1       0.20388    0.09944    0.70800   1.00
C5       0.17643    -0.10535   0.74849   1.00
H1       0.18731    -0.02747   0.74956   1.00
H1       0.20366    0.02770    0.70762   1.00
H2       0.16124    -0.09837   0.72069   1.00
H2       0.18090    -0.13747   0.74914   1.00
N1       0.15233    -0.09395   0.78182   1.00
C6       0.13794    -0.05810   0.78896   1.00
C6       0.14016    -0.11757   0.81078   1.00
C6       0.11646    -0.05873   0.82299   1.00
C6       0.11788    -0.09656   0.83687   1.00
H3       0.14265    -0.03281   0.77060   1.00
H3       0.14715    -0.14831   0.81296   1.00
H3       0.10139    -0.03436   0.83620   1.00
H3       0.10419    -0.10758   0.86306   1.00
H2       0.30035    0.13772    0.79474   1.00
H2       0.29875    0.09999    0.83083   1.00
N1       0.34450    0.09477    0.79029   1.00
C6       0.37483    0.11922    0.77627   1.00
C6       0.36150    0.05715    0.79375   1.00
C6       0.40825    0.09723    0.77152   1.00
C6       0.40006    0.05909    0.78224   1.00
H3       0.37192    0.15008    0.77024   1.00
H3       0.34627    0.03124    0.80348   1.00
H3       0.43604    0.10795    0.76114   1.00
H3       0.42035    0.03495    0.78161   1.00
C4       0.25036    0.24987    0.52085   1.00
C4       0.24964    0.25013    0.47915   1.00
C3       0.27390    0.27602    0.54249   1.00
C3       0.25039    0.28526    0.45748   1.00
C3       0.22679    0.22385    0.54262   1.00
C3       0.24903    0.21502    0.45741   1.00
C2       0.25006    0.25015    0.60518   1.00
C2       0.25006    0.25015    0.39482   1.00
C3a      0.27387    0.27627    0.58401   1.00
C3       0.25058    0.28519    0.41618   1.00
C3       0.22668    0.22405    0.58389   1.00
C3a      0.24921    0.21482    0.41597   1.00
H1       0.29267    0.29619    0.52706   1.00
H1       0.25047    0.31305    0.47250   1.00
C5       0.29946    0.30443    0.60590   1.00
H1       0.25111    0.31271    0.40067   1.00
H1       0.20800    0.20388    0.59944   1.00
C5       0.24849    0.17643    0.39465   1.00
H1       0.24956    0.18731    0.47253   1.00
H1       0.20762    0.20366    0.52770   1.00
H2       0.22069    0.16124    0.40163   1.00
H2       0.24914    0.18090    0.36253   1.00
N1       0.28182    0.15233    0.40605   1.00
C6       0.28896    0.13794    0.44190   1.00
C6       0.31078    0.14016    0.38243   1.00
C6       0.32299    0.11646    0.44127   1.00
C6       0.33687    0.11788    0.40344   1.00
H3       0.27060    0.14265    0.46719   1.00
H3       0.31296    0.14715    0.35169   1.00
H3       0.33620    0.10139    0.46564   1.00
H3       0.36306    0.10419    0.39242   1.00
H2       0.29474    0.30035    0.63772   1.00
H2       0.33083    0.29875    0.59999   1.00
N1       0.29029    0.34450    0.59477   1.00
C6       0.27627    0.37483    0.61922   1.00
C6       0.29375    0.36150    0.55715   1.00
C6       0.27152    0.40825    0.59723   1.00
C6       0.28224    0.40006    0.55909   1.00
H3       0.27024    0.37192    0.65008   1.00
H3       0.30348    0.34627    0.53124   1.00
H3       0.26114    0.43604    0.60795   1.00
H3       0.28161    0.42035    0.53495   1.00
C4       0.25036    0.75013    0.47915   1.00
C4       0.24964    0.74987    0.52085   1.00
C3       0.27390    0.72398    0.45751   1.00
C3       0.25039    0.71474    0.54252   1.00
C3       0.22679    0.77615    0.45738   1.00
C3       0.24903    0.78498    0.54259   1.00
C2       0.25006    0.74985    0.39482   1.00
C2       0.25006    0.74985    0.60518   1.00
C3a      0.27387    0.72373    0.41599   1.00
C3       0.25058    0.71481    0.58382   1.00
C3       0.22668    0.77595    0.41611   1.00
C3a      0.24921    0.78518    0.58403   1.00
H1       0.29267    0.70381    0.47294   1.00
H1       0.25047    0.68695    0.52750   1.00
C5       0.29946    0.69557    0.39410   1.00
H1       0.25111    0.68729    0.59933   1.00
H1       0.20800    0.79612    0.40056   1.00
C5       0.24849    0.82357    0.60535   1.00
H1       0.24956    0.81269    0.52747   1.00
H1       0.20762    0.79634    0.47230   1.00
H2       0.22069    0.83876    0.59837   1.00
H2       0.24914    0.81910    0.63747   1.00
N1       0.28182    0.84767    0.59395   1.00
C6       0.28896    0.86206    0.55810   1.00
C6       0.31078    0.85984    0.61757   1.00
C6       0.32299    0.88354    0.55873   1.00
C6       0.33687    0.88212    0.59656   1.00
H3       0.27060    0.85735    0.53281   1.00
H3       0.31296    0.85285    0.64831   1.00
H3       0.33620    0.89861    0.53436   1.00
H3       0.36306    0.89581    0.60758   1.00
H2       0.29474    0.69965    0.36228   1.00
H2       0.33083    0.70125    0.40001   1.00
N1       0.29029    0.65550    0.40523   1.00
C6       0.27627    0.62517    0.38078   1.00
C6       0.29375    0.63850    0.44285   1.00
C6       0.27152    0.59175    0.40277   1.00
C6       0.28224    0.59994    0.44091   1.00
H3       0.27024    0.62808    0.34992   1.00
H3       0.30348    0.65373    0.46876   1.00
H3       0.26114    0.56396    0.39205   1.00
H3       0.28161    0.57965    0.46505   1.00
C4       0.25013    0.97915    0.25036   1.00
C4       0.24987    1.02085    0.24964   1.00
C3       0.22398    0.95751    0.27390   1.00
C3       0.21474    1.04252    0.25039   1.00
C3       0.27615    0.95738    0.22679   1.00
C3       0.28498    1.04259    0.24903   1.00
C2       0.24985    0.89482    0.25006   1.00
C2       0.24985    1.10518    0.25006   1.00
C3a      0.22373    0.91599    0.27387   1.00
C3       0.21481    1.08382    0.25058   1.00
C3       0.27595    0.91611    0.22668   1.00
C3a      0.28518    1.08403    0.24921   1.00
H1       0.20381    0.97294    0.29267   1.00
H1       0.18695    1.02750    0.25047   1.00
C5       0.19557    0.89410    0.29946   1.00
H1       0.18729    1.09933    0.25111   1.00
H1       0.29612    0.90056    0.20800   1.00
C5       0.32357    1.10535    0.24849   1.00
H1       0.31269    1.02747    0.24956   1.00
H1       0.29634    0.97230    0.20762   1.00
H2       0.33876    1.09837    0.22069   1.00
H2       0.31910    1.13747    0.24914   1.00
N1       0.34767    1.09395    0.28182   1.00
C6       0.36206    1.05810    0.28896   1.00
C6       0.35984    1.11757    0.31078   1.00
C6       0.38354    1.05873    0.32299   1.00
C6       0.38212    1.09656    0.33687   1.00
H3       0.35735    1.03281    0.27060   1.00
H3       0.35285    1.14831    0.31296   1.00
H3       0.39861    1.03436    0.33620   1.00
H3       0.39581    1.10758    0.36306   1.00
H2       0.19965    0.86228    0.29474   1.00
H2       0.20125    0.90001    0.33083   1.00
N1       0.15550    0.90523    0.29029   1.00
C6       0.12517    0.88078    0.27627   1.00
C6       0.13850    0.94285    0.29375   1.00
C6       0.09175    0.90277    0.27152   1.00
C6       0.09994    0.94091    0.28224   1.00
H3       0.12808    0.84992    0.27024   1.00
H3       0.15373    0.96876    0.30348   1.00
H3       0.06396    0.89205    0.26114   1.00
H3       0.07965    0.96505    0.28161   1.00
C4       0.02085    0.75036    0.24987   1.00
C4       -0.02085   0.74964    0.25013   1.00
C3       0.04249    0.77390    0.27602   1.00
C3       -0.04252   0.75039    0.28526   1.00
C3       0.04262    0.72679    0.22385   1.00
C3       -0.04259   0.74903    0.21502   1.00
C2       0.10518    0.75006    0.25015   1.00
C2       -0.10518   0.75006    0.25015   1.00
C3a      0.08401    0.77387    0.27627   1.00
C3       -0.08382   0.75058    0.28519   1.00
C3       0.08389    0.72668    0.22405   1.00
C3a      -0.08403   0.74921    0.21482   1.00
H1       0.02706    0.79267    0.29619   1.00
H1       -0.02750   0.75047    0.31305   1.00
C5       0.10590    0.79946    0.30443   1.00
H1       -0.09933   0.75111    0.31271   1.00
H1       0.09944    0.70800    0.20388   1.00
C5       -0.10535   0.74849    0.17643   1.00
H1       -0.02747   0.74956    0.18731   1.00
H1       0.02770    0.70762    0.20366   1.00
H2       -0.09837   0.72069    0.16124   1.00
H2       -0.13747   0.74914    0.18090   1.00
N1       -0.09395   0.78182    0.15233   1.00
C6       -0.05810   0.78896    0.13794   1.00
C6       -0.11757   0.81078    0.14016   1.00
C6       -0.05873   0.82299    0.11646   1.00
C6       -0.09656   0.83687    0.11788   1.00
H3       -0.03281   0.77060    0.14265   1.00
H3       -0.14831   0.81296    0.14715   1.00
H3       -0.03436   0.83620    0.10139   1.00
H3       -0.10758   0.86306    0.10419   1.00
H2       0.13772    0.79474    0.30035   1.00
H2       0.09999    0.83083    0.29875   1.00
N1       0.09477    0.79029    0.34450   1.00
C6       0.11922    0.77627    0.37483   1.00
C6       0.05715    0.79375    0.36150   1.00
C6       0.09723    0.77152    0.40825   1.00
C6       0.05909    0.78224    0.40006   1.00
H3       0.15008    0.77024    0.37192   1.00
H3       0.03124    0.80348    0.34627   1.00
H3       0.10795    0.76114    0.43604   1.00
H3       0.03495    0.78161    0.42035   1.00
C4       0.47915    0.75036    0.25013   1.00
C4       0.52085    0.74964    0.24987   1.00
C3       0.45751    0.77390    0.22398   1.00
C3       0.54252    0.75039    0.21474   1.00
C3       0.45738    0.72679    0.27615   1.00
C3       0.54259    0.74903    0.28498   1.00
C2       0.39482    0.75006    0.24985   1.00
C2       0.60518    0.75006    0.24985   1.00
C3a      0.41599    0.77387    0.22373   1.00
C3       0.58382    0.75058    0.21481   1.00
C3       0.41611    0.72668    0.27595   1.00
C3a      0.58403    0.74921    0.28518   1.00
H1       0.47294    0.79267    0.20381   1.00
H1       0.52750    0.75047    0.18695   1.00
C5       0.39410    0.79946    0.19557   1.00
H1       0.59933    0.75111    0.18729   1.00
H1       0.40056    0.70800    0.29612   1.00
C5       0.60535    0.74849    0.32357   1.00
H1       0.52747    0.74956    0.31269   1.00
H1       0.47230    0.70762    0.29634   1.00
H2       0.59837    0.72069    0.33876   1.00
H2       0.63747    0.74914    0.31910   1.00
N1       0.59395    0.78182    0.34767   1.00
C6       0.55810    0.78896    0.36206   1.00
C6       0.61757    0.81078    0.35984   1.00
C6       0.55873    0.82299    0.38354   1.00
C6       0.59656    0.83687    0.38212   1.00
H3       0.53281    0.77060    0.35735   1.00
H3       0.64831    0.81296    0.35285   1.00
H3       0.53436    0.83620    0.39861   1.00
H3       0.60758    0.86306    0.39581   1.00
H2       0.36228    0.79474    0.19965   1.00
H2       0.40001    0.83083    0.20125   1.00
N1       0.40523    0.79029    0.15550   1.00
C6       0.38078    0.77627    0.12517   1.00
C6       0.44285    0.79375    0.13850   1.00
C6       0.40277    0.77152    0.09175   1.00
C6       0.44091    0.78224    0.09994   1.00
H3       0.34992    0.77024    0.12808   1.00
H3       0.46876    0.80348    0.15373   1.00
H3       0.39205    0.76114    0.06396   1.00
H3       0.46505    0.78161    0.07965   1.00
C4       0.24987    0.52085    0.25036   1.00
C4       0.25013    0.47915    0.24964   1.00
C3       0.27602    0.54249    0.27390   1.00
C3       0.28526    0.45748    0.25039   1.00
C3       0.22385    0.54262    0.22679   1.00
C3       0.21502    0.45741    0.24903   1.00
C2       0.25015    0.60518    0.25006   1.00
C2       0.25015    0.39482    0.25006   1.00
C3a      0.27627    0.58401    0.27387   1.00
C3       0.28519    0.41618    0.25058   1.00
C3       0.22405    0.58389    0.22668   1.00
C3a      0.21482    0.41597    0.24921   1.00
H1       0.29619    0.52706    0.29267   1.00
H1       0.31305    0.47250    0.25047   1.00
C5       0.30443    0.60590    0.29946   1.00
H1       0.31271    0.40067    0.25111   1.00
H1       0.20388    0.59944    0.20800   1.00
C5       0.17643    0.39465    0.24849   1.00
H1       0.18731    0.47253    0.24956   1.00
H1       0.20366    0.52770    0.20762   1.00
H2       0.16124    0.40163    0.22069   1.00
H2       0.18090    0.36253    0.24914   1.00
N1       0.15233    0.40605    0.28182   1.00
C6       0.13794    0.44190    0.28896   1.00
C6       0.14016    0.38243    0.31078   1.00
C6       0.11646    0.44127    0.32299   1.00
C6       0.11788    0.40344    0.33687   1.00
H3       0.14265    0.46719    0.27060   1.00
H3       0.14715    0.35169    0.31296   1.00
H3       0.10139    0.46564    0.33620   1.00
H3       0.10419    0.39242    0.36306   1.00
H2       0.30035    0.63772    0.29474   1.00
H2       0.29875    0.59999    0.33083   1.00
N1       0.34450    0.59477    0.29029   1.00
C6       0.37483    0.61922    0.27627   1.00
C6       0.36150    0.55715    0.29375   1.00
C6       0.40825    0.59723    0.27152   1.00
C6       0.40006    0.55909    0.28224   1.00
H3       0.37192    0.65008    0.27024   1.00
H3       0.34627    0.53124    0.30348   1.00
H3       0.43604    0.60795    0.26114   1.00
H3       0.42035    0.53495    0.28161   1.00
C4       0.25036    0.74987    0.02085   1.00
C4       0.24964    0.75013    -0.02085   1.00
C3       0.27390    0.77602    0.04249   1.00
C3       0.25039    0.78526    -0.04252   1.00
C3       0.22679    0.72385    0.04262   1.00
C3       0.24903    0.71502    -0.04259   1.00
C2       0.25006    0.75015    0.10518   1.00
C2       0.25006    0.75015    -0.10518   1.00
C3a      0.27387    0.77627    0.08401   1.00
C3       0.25058    0.78519    -0.08382   1.00
C3       0.22668    0.72405    0.08389   1.00
C3a      0.24921    0.71482    -0.08403   1.00
H1       0.29267    0.79619    0.02706   1.00
H1       0.25047    0.81305    -0.02750   1.00
C5       0.29946    0.80443    0.10590   1.00
H1       0.25111    0.81271    -0.09933   1.00
H1       0.20800    0.70388    0.09944   1.00
C5       0.24849    0.67643    -0.10535   1.00
H1       0.24956    0.68731    -0.02747   1.00
H1       0.20762    0.70366    0.02770   1.00
H2       0.22069    0.66124    -0.09837   1.00
H2       0.24914    0.68090    -0.13747   1.00
N1       0.28182    0.65233    -0.09395   1.00
C6       0.28896    0.63794    -0.05810   1.00
C6       0.31078    0.64016    -0.11757   1.00
C6       0.32299    0.61646    -0.05873   1.00
C6       0.33687    0.61788    -0.09656   1.00
H3       0.27060    0.64265    -0.03281   1.00
H3       0.31296    0.64715    -0.14831   1.00
H3       0.33620    0.60139    -0.03436   1.00
H3       0.36306    0.60419    -0.10758   1.00
H2       0.29474    0.80035    0.13772   1.00
H2       0.33083    0.79875    0.09999   1.00
N1       0.29029    0.84450    0.09477   1.00
C6       0.27627    0.87483    0.11922   1.00
C6       0.29375    0.86150    0.05715   1.00
C6       0.27152    0.90825    0.09723   1.00
C6       0.28224    0.90006    0.05909   1.00
H3       0.27024    0.87192    0.15008   1.00
H3       0.30348    0.84627    0.03124   1.00
H3       0.26114    0.93604    0.10795   1.00
H3       0.28161    0.92035    0.03495   1.00
C4       0.75036    0.25013    0.47915   1.00
C4       0.74964    0.24987    0.52085   1.00
C3       0.77390    0.22398    0.45751   1.00
C3       0.75039    0.21474    0.54252   1.00
C3       0.72679    0.27615    0.45738   1.00
C3       0.74903    0.28498    0.54259   1.00
C2       0.75006    0.24985    0.39482   1.00
C2       0.75006    0.24985    0.60518   1.00
C3a      0.77387    0.22373    0.41599   1.00
C3       0.75058    0.21481    0.58382   1.00
C3       0.72668    0.27595    0.41611   1.00
C3a      0.74921    0.28518    0.58403   1.00
H1       0.79267    0.20381    0.47294   1.00
H1       0.75047    0.18695    0.52750   1.00
C5       0.79946    0.19557    0.39410   1.00
H1       0.75111    0.18729    0.59933   1.00
H1       0.70800    0.29612    0.40056   1.00
C5       0.74849    0.32357    0.60535   1.00
H1       0.74956    0.31269    0.52747   1.00
H1       0.70762    0.29634    0.47230   1.00
H2       0.72069    0.33876    0.59837   1.00
H2       0.74914    0.31910    0.63747   1.00
N1       0.78182    0.34767    0.59395   1.00
C6       0.78896    0.36206    0.55810   1.00
C6       0.81078    0.35984    0.61757   1.00
C6       0.82299    0.38354    0.55873   1.00
C6       0.83687    0.38212    0.59656   1.00
H3       0.77060    0.35735    0.53281   1.00
H3       0.81296    0.35285    0.64831   1.00
H3       0.83620    0.39861    0.53436   1.00
H3       0.86306    0.39581    0.60758   1.00
H2       0.79474    0.19965    0.36228   1.00
H2       0.83083    0.20125    0.40001   1.00
N1       0.79029    0.15550    0.40523   1.00
C6       0.77627    0.12517    0.38078   1.00
C6       0.79375    0.13850    0.44285   1.00
C6       0.77152    0.09175    0.40277   1.00
C6       0.78224    0.09994    0.44091   1.00
H3       0.77024    0.12808    0.34992   1.00
H3       0.80348    0.15373    0.46876   1.00
H3       0.76114    0.06396    0.39205   1.00
H3       0.78161    0.07965    0.46505   1.00
C4       0.75013    0.47915    0.25036   1.00
C4       0.74987    0.52085    0.24964   1.00
C3       0.72398    0.45751    0.27390   1.00
C3       0.71474    0.54252    0.25039   1.00
C3       0.77615    0.45738    0.22679   1.00
C3       0.78498    0.54259    0.24903   1.00
C2       0.74985    0.39482    0.25006   1.00
C2       0.74985    0.60518    0.25006   1.00
C3a      0.72373    0.41599    0.27387   1.00
C3       0.71481    0.58382    0.25058   1.00
C3       0.77595    0.41611    0.22668   1.00
C3a      0.78518    0.58403    0.24921   1.00
H1       0.70381    0.47294    0.29267   1.00
H1       0.68695    0.52750    0.25047   1.00
C5       0.69557    0.39410    0.29946   1.00
H1       0.68729    0.59933    0.25111   1.00
H1       0.79612    0.40056    0.20800   1.00
C5       0.82357    0.60535    0.24849   1.00
H1       0.81269    0.52747    0.24956   1.00
H1       0.79634    0.47230    0.20762   1.00
H2       0.83876    0.59837    0.22069   1.00
H2       0.81910    0.63747    0.24914   1.00
N1       0.84767    0.59395    0.28182   1.00
C6       0.86206    0.55810    0.28896   1.00
C6       0.85984    0.61757    0.31078   1.00
C6       0.88354    0.55873    0.32299   1.00
C6       0.88212    0.59656    0.33687   1.00
H3       0.85735    0.53281    0.27060   1.00
H3       0.85285    0.64831    0.31296   1.00
H3       0.89861    0.53436    0.33620   1.00
H3       0.89581    0.60758    0.36306   1.00
H2       0.69965    0.36228    0.29474   1.00
H2       0.70125    0.40001    0.33083   1.00
N1       0.65550    0.40523    0.29029   1.00
C6       0.62517    0.38078    0.27627   1.00
C6       0.63850    0.44285    0.29375   1.00
C6       0.59175    0.40277    0.27152   1.00
C6       0.59994    0.44091    0.28224   1.00
H3       0.62808    0.34992    0.27024   1.00
H3       0.65373    0.46876    0.30348   1.00
H3       0.56396    0.39205    0.26114   1.00
H3       0.57965    0.46505    0.28161   1.00
C4       0.52085    0.25036    0.24987   1.00
C4       0.47915    0.24964    0.25013   1.00
C3       0.54249    0.27390    0.27602   1.00
C3       0.45748    0.25039    0.28526   1.00
C3       0.54262    0.22679    0.22385   1.00
C3       0.45741    0.24903    0.21502   1.00
C2       0.60518    0.25006    0.25015   1.00
C2       0.39482    0.25006    0.25015   1.00
C3a      0.58401    0.27387    0.27627   1.00
C3       0.41618    0.25058    0.28519   1.00
C3       0.58389    0.22668    0.22405   1.00
C3a      0.41597    0.24921    0.21482   1.00
H1       0.52706    0.29267    0.29619   1.00
H1       0.47250    0.25047    0.31305   1.00
C5       0.60590    0.29946    0.30443   1.00
H1       0.40067    0.25111    0.31271   1.00
H1       0.59944    0.20800    0.20388   1.00
C5       0.39465    0.24849    0.17643   1.00
H1       0.47253    0.24956    0.18731   1.00
H1       0.52770    0.20762    0.20366   1.00
H2       0.40163    0.22069    0.16124   1.00
H2       0.36253    0.24914    0.18090   1.00
N1       0.40605    0.28182    0.15233   1.00
C6       0.44190    0.28896    0.13794   1.00
C6       0.38243    0.31078    0.14016   1.00
C6       0.44127    0.32299    0.11646   1.00
C6       0.40344    0.33687    0.11788   1.00
H3       0.46719    0.27060    0.14265   1.00
H3       0.35169    0.31296    0.14715   1.00
H3       0.46564    0.33620    0.10139   1.00
H3       0.39242    0.36306    0.10419   1.00
H2       0.63772    0.29474    0.30035   1.00
H2       0.59999    0.33083    0.29875   1.00
N1       0.59477    0.29029    0.34450   1.00
C6       0.61922    0.27627    0.37483   1.00
C6       0.55715    0.29375    0.36150   1.00
C6       0.59723    0.27152    0.40825   1.00
C6       0.55909    0.28224    0.40006   1.00
H3       0.65008    0.27024    0.37192   1.00
H3       0.53124    0.30348    0.34627   1.00
H3       0.60795    0.26114    0.43604   1.00
H3       0.53495    0.28161    0.42035   1.00
C4       0.97915    0.25036    0.25013   1.00
C4       1.02085    0.24964    0.24987   1.00
C3       0.95751    0.27390    0.22398   1.00
C3       1.04252    0.25039    0.21474   1.00
C3       0.95738    0.22679    0.27615   1.00
C3       1.04259    0.24903    0.28498   1.00
C2       0.89482    0.25006    0.24985   1.00
C2       1.10518    0.25006    0.24985   1.00
C3a      0.91599    0.27387    0.22373   1.00
C3       1.08382    0.25058    0.21481   1.00
C3       0.91611    0.22668    0.27595   1.00
C3a      1.08403    0.24921    0.28518   1.00
H1       0.97294    0.29267    0.20381   1.00
H1       1.02750    0.25047    0.18695   1.00
C5       0.89410    0.29946    0.19557   1.00
H1       1.09933    0.25111    0.18729   1.00
H1       0.90056    0.20800    0.29612   1.00
C5       1.10535    0.24849    0.32357   1.00
H1       1.02747    0.24956    0.31269   1.00
H1       0.97230    0.20762    0.29634   1.00
H2       1.09837    0.22069    0.33876   1.00
H2       1.13747    0.24914    0.31910   1.00
N1       1.09395    0.28182    0.34767   1.00
C6       1.05810    0.28896    0.36206   1.00
C6       1.11757    0.31078    0.35984   1.00
C6       1.05873    0.32299    0.38354   1.00
C6       1.09656    0.33687    0.38212   1.00
H3       1.03281    0.27060    0.35735   1.00
H3       1.14831    0.31296    0.35285   1.00
H3       1.03436    0.33620    0.39861   1.00
H3       1.10758    0.36306    0.39581   1.00
H2       0.86228    0.29474    0.19965   1.00
H2       0.90001    0.33083    0.20125   1.00
N1       0.90523    0.29029    0.15550   1.00
C6       0.88078    0.27627    0.12517   1.00
C6       0.94285    0.29375    0.13850   1.00
C6       0.90277    0.27152    0.09175   1.00
C6       0.94091    0.28224    0.09994   1.00
H3       0.84992    0.27024    0.12808   1.00
H3       0.96876    0.30348    0.15373   1.00
H3       0.89205    0.26114    0.06396   1.00
H3       0.96505    0.28161    0.07965   1.00
C4       0.74987    0.02085    0.25036   1.00
C4       0.75013    -0.02085   0.24964   1.00
C3       0.77602    0.04249    0.27390   1.00
C3       0.78526    -0.04252   0.25039   1.00
C3       0.72385    0.04262    0.22679   1.00
C3       0.71502    -0.04259   0.24903   1.00
C2       0.75015    0.10518    0.25006   1.00
C2       0.75015    -0.10518   0.25006   1.00
C3a      0.77627    0.08401    0.27387   1.00
C3       0.78519    -0.08382   0.25058   1.00
C3       0.72405    0.08389    0.22668   1.00
C3a      0.71482    -0.08403   0.24921   1.00
H1       0.79619    0.02706    0.29267   1.00
H1       0.81305    -0.02750   0.25047   1.00
C5       0.80443    0.10590    0.29946   1.00
H1       0.81271    -0.09933   0.25111   1.00
H1       0.70388    0.09944    0.20800   1.00
C5       0.67643    -0.10535   0.24849   1.00
H1       0.68731    -0.02747   0.24956   1.00
H1       0.70366    0.02770    0.20762   1.00
H2       0.66124    -0.09837   0.22069   1.00
H2       0.68090    -0.13747   0.24914   1.00
N1       0.65233    -0.09395   0.28182   1.00
C6       0.63794    -0.05810   0.28896   1.00
C6       0.64016    -0.11757   0.31078   1.00
C6       0.61646    -0.05873   0.32299   1.00
C6       0.61788    -0.09656   0.33687   1.00
H3       0.64265    -0.03281   0.27060   1.00
H3       0.64715    -0.14831   0.31296   1.00
H3       0.60139    -0.03436   0.33620   1.00
H3       0.60419    -0.10758   0.36306   1.00
H2       0.80035    0.13772    0.29474   1.00
H2       0.79875    0.09999    0.33083   1.00
N1       0.84450    0.09477    0.29029   1.00
C6       0.87483    0.11922    0.27627   1.00
C6       0.86150    0.05715    0.29375   1.00
C6       0.90825    0.09723    0.27152   1.00
C6       0.90006    0.05909    0.28224   1.00
H3       0.87192    0.15008    0.27024   1.00
H3       0.84627    0.03124    0.30348   1.00
H3       0.93604    0.10795    0.26114   1.00
H3       0.92035    0.03495    0.28161   1.00
C4       0.75036    0.24987    0.02085   1.00
C4       0.74964    0.25013    -0.02085   1.00
C3       0.77390    0.27602    0.04249   1.00
C3       0.75039    0.28526    -0.04252   1.00
C3       0.72679    0.22385    0.04262   1.00
C3       0.74903    0.21502    -0.04259   1.00
C2       0.75006    0.25015    0.10518   1.00
C2       0.75006    0.25015    -0.10518   1.00
C3a      0.77387    0.27627    0.08401   1.00
C3       0.75058    0.28519    -0.08382   1.00
C3       0.72668    0.22405    0.08389   1.00
C3a      0.74921    0.21482    -0.08403   1.00
H1       0.79267    0.29619    0.02706   1.00
H1       0.75047    0.31305    -0.02750   1.00
C5       0.79946    0.30443    0.10590   1.00
H1       0.75111    0.31271    -0.09933   1.00
H1       0.70800    0.20388    0.09944   1.00
C5       0.74849    0.17643    -0.10535   1.00
H1       0.74956    0.18731    -0.02747   1.00
H1       0.70762    0.20366    0.02770   1.00
H2       0.72069    0.16124    -0.09837   1.00
H2       0.74914    0.18090    -0.13747   1.00
N1       0.78182    0.15233    -0.09395   1.00
C6       0.78896    0.13794    -0.05810   1.00
C6       0.81078    0.14016    -0.11757   1.00
C6       0.82299    0.11646    -0.05873   1.00
C6       0.83687    0.11788    -0.09656   1.00
H3       0.77060    0.14265    -0.03281   1.00
H3       0.81296    0.14715    -0.14831   1.00
H3       0.83620    0.10139    -0.03436   1.00
H3       0.86306    0.10419    -0.10758   1.00
H2       0.79474    0.30035    0.13772   1.00
H2       0.83083    0.29875    0.09999   1.00
N1       0.79029    0.34450    0.09477   1.00
C6       0.77627    0.37483    0.11922   1.00
C6       0.79375    0.36150    0.05715   1.00
C6       0.77152    0.40825    0.09723   1.00
C6       0.78224    0.40006    0.05909   1.00
H3       0.77024    0.37192    0.15008   1.00
H3       0.80348    0.34627    0.03124   1.00
H3       0.76114    0.43604    0.10795   1.00
H3       0.78161    0.42035    0.03495   1.00
C4       0.91536    0.91513    1.14415   1.00
C4       0.91464    0.91487    1.18585   1.00
C3       0.93890    0.88898    1.12251   1.00
C3       0.91539    0.87974    1.20752   1.00
C3       0.89179    0.94115    1.12238   1.00
C3       0.91403    0.94998    1.20759   1.00
C2       0.91506    0.91485    1.05982   1.00
C2       0.91506    0.91485    1.27018   1.00
C3a      0.93887    0.88873    1.08099   1.00
C3       0.91558    0.87981    1.24882   1.00
C3       0.89168    0.94095    1.08111   1.00
C3a      0.91421    0.95018    1.24903   1.00
H1       0.95767    0.86881    1.13794   1.00
H1       0.91547    0.85195    1.19250   1.00
C5       0.96446    0.86057    1.05910   1.00
H1       0.91611    0.85229    1.26433   1.00
H1       0.87300    0.96112    1.06556   1.00
C5       0.91349    0.98857    1.27035   1.00
H1       0.91456    0.97769    1.19247   1.00
H1       0.87262    0.96134    1.13730   1.00
H2       0.88569    1.00376    1.26337   1.00
H2       0.91414    0.98410    1.30247   1.00
N1       0.94682    1.01267    1.25895   1.00
C6       0.95396    1.02706    1.22310   1.00
C6       0.97578    1.02484    1.28257   1.00
C6       0.98799    1.04854    1.22373   1.00
C6       1.00187    1.04712    1.26156   1.00
H3       0.93560    1.02235    1.19781   1.00
H3       0.97796    1.01785    1.31331   1.00
H3       1.00120    1.06361    1.19936   1.00
H3       1.02806    1.06081    1.27258   1.00
H2       0.95974    0.86465    1.02728   1.00
H2       0.99583    0.86625    1.06501   1.00
N1       0.95529    0.82050    1.07023   1.00
C6       0.94127    0.79017    1.04578   1.00
C6       0.95875    0.80350    1.10785   1.00
C6       0.93652    0.75675    1.06777   1.00
C6       0.94724    0.76494    1.10591   1.00
H3       0.93524    0.79308    1.01492   1.00
H3       0.96848    0.81873    1.13376   1.00
H3       0.92614    0.72896    1.05705   1.00
H3       0.94661    0.74465    1.13005   1.00
C4       0.91513    1.14415    0.91536   1.00
C4       0.91487    1.18585    0.91464   1.00
C3       0.88898    1.12251    0.93890   1.00
C3       0.87974    1.20752    0.91539   1.00
C3       0.94115    1.12238    0.89179   1.00
C3       0.94998    1.20759    0.91403   1.00
C2       0.91485    1.05982    0.91506   1.00
C2       0.91485    1.27018    0.91506   1.00
C3a      0.88873    1.08099    0.93887   1.00
C3       0.87981    1.24882    0.91558   1.00
C3       0.94095    1.08111    0.89168   1.00
C3a      0.95018    1.24903    0.91421   1.00
H1       0.86881    1.13794    0.95767   1.00
H1       0.85195    1.19250    0.91547   1.00
C5       0.86057    1.05910    0.96446   1.00
H1       0.85229    1.26433    0.91611   1.00
H1       0.96112    1.06556    0.87300   1.00
C5       0.98857    1.27035    0.91349   1.00
H1       0.97769    1.19247    0.91456   1.00
H1       0.96134    1.13730    0.87262   1.00
H2       1.00376    1.26337    0.88569   1.00
H2       0.98410    1.30247    0.91414   1.00
N1       1.01267    1.25895    0.94682   1.00
C6       1.02706    1.22310    0.95396   1.00
C6       1.02484    1.28257    0.97578   1.00
C6       1.04854    1.22373    0.98799   1.00
C6       1.04712    1.26156    1.00187   1.00
H3       1.02235    1.19781    0.93560   1.00
H3       1.01785    1.31331    0.97796   1.00
H3       1.06361    1.19936    1.00120   1.00
H3       1.06081    1.27258    1.02806   1.00
H2       0.86465    1.02728    0.95974   1.00
H2       0.86625    1.06501    0.99583   1.00
N1       0.82050    1.07023    0.95529   1.00
C6       0.79017    1.04578    0.94127   1.00
C6       0.80350    1.10785    0.95875   1.00
C6       0.75675    1.06777    0.93652   1.00
C6       0.76494    1.10591    0.94724   1.00
H3       0.79308    1.01492    0.93524   1.00
H3       0.81873    1.13376    0.96848   1.00
H3       0.72896    1.05705    0.92614   1.00
H3       0.74465    1.13005    0.94661   1.00
C4       0.68585    0.91536    0.91487   1.00
C4       0.64415    0.91464    0.91513   1.00
C3       0.70749    0.93890    0.94102   1.00
C3       0.62248    0.91539    0.95026   1.00
C3       0.70762    0.89179    0.88885   1.00
C3       0.62241    0.91403    0.88002   1.00
C2       0.77018    0.91506    0.91515   1.00
C2       0.55982    0.91506    0.91515   1.00
C3a      0.74901    0.93887    0.94127   1.00
C3       0.58118    0.91558    0.95019   1.00
C3       0.74889    0.89168    0.88905   1.00
C3a      0.58097    0.91421    0.87982   1.00
H1       0.69206    0.95767    0.96119   1.00
H1       0.63750    0.91547    0.97805   1.00
C5       0.77090    0.96446    0.96943   1.00
H1       0.56567    0.91611    0.97771   1.00
H1       0.76444    0.87300    0.86888   1.00
C5       0.55965    0.91349    0.84143   1.00
H1       0.63753    0.91456    0.85231   1.00
H1       0.69270    0.87262    0.86866   1.00
H2       0.56663    0.88569    0.82624   1.00
H2       0.52753    0.91414    0.84590   1.00
N1       0.57105    0.94682    0.81733   1.00
C6       0.60690    0.95396    0.80294   1.00
C6       0.54743    0.97578    0.80516   1.00
C6       0.60627    0.98799    0.78146   1.00
C6       0.56844    1.00187    0.78288   1.00
H3       0.63219    0.93560    0.80765   1.00
H3       0.51669    0.97796    0.81215   1.00
H3       0.63064    1.00120    0.76639   1.00
H3       0.55742    1.02806    0.76919   1.00
H2       0.80272    0.95974    0.96535   1.00
H2       0.76499    0.99583    0.96375   1.00
N1       0.75977    0.95529    1.00950   1.00
C6       0.78422    0.94127    1.03983   1.00
C6       0.72215    0.95875    1.02650   1.00
C6       0.76223    0.93652    1.07325   1.00
C6       0.72409    0.94724    1.06506   1.00
H3       0.81508    0.93524    1.03692   1.00
H3       0.69624    0.96848    1.01127   1.00
H3       0.77295    0.92614    1.10104   1.00
H3       0.69995    0.94661    1.08535   1.00
C4       1.14415    0.91536    0.91513   1.00
C4       1.18585    0.91464    0.91487   1.00
C3       1.12251    0.93890    0.88898   1.00
C3       1.20752    0.91539    0.87974   1.00
C3       1.12238    0.89179    0.94115   1.00
C3       1.20759    0.91403    0.94998   1.00
C2       1.05982    0.91506    0.91485   1.00
C2       1.27018    0.91506    0.91485   1.00
C3a      1.08099    0.93887    0.88873   1.00
C3       1.24882    0.91558    0.87981   1.00
C3       1.08111    0.89168    0.94095   1.00
C3a      1.24903    0.91421    0.95018   1.00
H1       1.13794    0.95767    0.86881   1.00
H1       1.19250    0.91547    0.85195   1.00
C5       1.05910    0.96446    0.86057   1.00
H1       1.26433    0.91611    0.85229   1.00
H1       1.06556    0.87300    0.96112   1.00
C5       1.27035    0.91349    0.98857   1.00
H1       1.19247    0.91456    0.97769   1.00
H1       1.13730    0.87262    0.96134   1.00
H2       1.26337    0.88569    1.00376   1.00
H2       1.30247    0.91414    0.98410   1.00
N1       1.25895    0.94682    1.01267   1.00
C6       1.22310    0.95396    1.02706   1.00
C6       1.28257    0.97578    1.02484   1.00
C6       1.22373    0.98799    1.04854   1.00
C6       1.26156    1.00187    1.04712   1.00
H3       1.19781    0.93560    1.02235   1.00
H3       1.31331    0.97796    1.01785   1.00
H3       1.19936    1.00120    1.06361   1.00
H3       1.27258    1.02806    1.06081   1.00
H2       1.02728    0.95974    0.86465   1.00
H2       1.06501    0.99583    0.86625   1.00
N1       1.07023    0.95529    0.82050   1.00
C6       1.04578    0.94127    0.79017   1.00
C6       1.10785    0.95875    0.80350   1.00
C6       1.06777    0.93652    0.75675   1.00
C6       1.10591    0.94724    0.76494   1.00
H3       1.01492    0.93524    0.79308   1.00
H3       1.13376    0.96848    0.81873   1.00
H3       1.05705    0.92614    0.72896   1.00
H3       1.13005    0.94661    0.74465   1.00
C4       0.91487    0.68585    0.91536   1.00
C4       0.91513    0.64415    0.91464   1.00
C3       0.94102    0.70749    0.93890   1.00
C3       0.95026    0.62248    0.91539   1.00
C3       0.88885    0.70762    0.89179   1.00
C3       0.88002    0.62241    0.91403   1.00
C2       0.91515    0.77018    0.91506   1.00
C2       0.91515    0.55982    0.91506   1.00
C3a      0.94127    0.74901    0.93887   1.00
C3       0.95019    0.58118    0.91558   1.00
C3       0.88905    0.74889    0.89168   1.00
C3a      0.87982    0.58097    0.91421   1.00
H1       0.96119    0.69206    0.95767   1.00
H1       0.97805    0.63750    0.91547   1.00
C5       0.96943    0.77090    0.96446   1.00
H1       0.97771    0.56567    0.91611   1.00
H1       0.86888    0.76444    0.87300   1.00
C5       0.84143    0.55965    0.91349   1.00
H1       0.85231    0.63753    0.91456   1.00
H1       0.86866    0.69270    0.87262   1.00
H2       0.82624    0.56663    0.88569   1.00
H2       0.84590    0.52753    0.91414   1.00
N1       0.81733    0.57105    0.94682   1.00
C6       0.80294    0.60690    0.95396   1.00
C6       0.80516    0.54743    0.97578   1.00
C6       0.78146    0.60627    0.98799   1.00
C6       0.78288    0.56844    1.00187   1.00
H3       0.80765    0.63219    0.93560   1.00
H3       0.81215    0.51669    0.97796   1.00
H3       0.76639    0.63064    1.00120   1.00
H3       0.76919    0.55742    1.02806   1.00
H2       0.96535    0.80272    0.95974   1.00
H2       0.96375    0.76499    0.99583   1.00
N1       1.00950    0.75977    0.95529   1.00
C6       1.03983    0.78422    0.94127   1.00
C6       1.02650    0.72215    0.95875   1.00
C6       1.07325    0.76223    0.93652   1.00
C6       1.06506    0.72409    0.94724   1.00
H3       1.03692    0.81508    0.93524   1.00
H3       1.01127    0.69624    0.96848   1.00
H3       1.10104    0.77295    0.92614   1.00
H3       1.08535    0.69995    0.94661   1.00
C4       0.91536    0.91487    0.68585   1.00
C4       0.91464    0.91513    0.64415   1.00
C3       0.93890    0.94102    0.70749   1.00
C3       0.91539    0.95026    0.62248   1.00
C3       0.89179    0.88885    0.70762   1.00
C3       0.91403    0.88002    0.62241   1.00
C2       0.91506    0.91515    0.77018   1.00
C2       0.91506    0.91515    0.55982   1.00
C3a      0.93887    0.94127    0.74901   1.00
C3       0.91558    0.95019    0.58118   1.00
C3       0.89168    0.88905    0.74889   1.00
C3a      0.91421    0.87982    0.58097   1.00
H1       0.95767    0.96119    0.69206   1.00
H1       0.91547    0.97805    0.63750   1.00
C5       0.96446    0.96943    0.77090   1.00
H1       0.91611    0.97771    0.56567   1.00
H1       0.87300    0.86888    0.76444   1.00
C5       0.91349    0.84143    0.55965   1.00
H1       0.91456    0.85231    0.63753   1.00
H1       0.87262    0.86866    0.69270   1.00
H2       0.88569    0.82624    0.56663   1.00
H2       0.91414    0.84590    0.52753   1.00
N1       0.94682    0.81733    0.57105   1.00
C6       0.95396    0.80294    0.60690   1.00
C6       0.97578    0.80516    0.54743   1.00
C6       0.98799    0.78146    0.60627   1.00
C6       1.00187    0.78288    0.56844   1.00
H3       0.93560    0.80765    0.63219   1.00
H3       0.97796    0.81215    0.51669   1.00
H3       1.00120    0.76639    0.63064   1.00
H3       1.02806    0.76919    0.55742   1.00
H2       0.95974    0.96535    0.80272   1.00
H2       0.99583    0.96375    0.76499   1.00
N1       0.95529    1.00950    0.75977   1.00
C6       0.94127    1.03983    0.78422   1.00
C6       0.95875    1.02650    0.72215   1.00
C6       0.93652    1.07325    0.76223   1.00
C6       0.94724    1.06506    0.72409   1.00
H3       0.93524    1.03692    0.81508   1.00
H3       0.96848    1.01127    0.69624   1.00
H3       0.92614    1.10104    0.77295   1.00
H3       0.94661    1.08535    0.69995   1.00
C4       0.41536    0.41513    1.14415   1.00
C4       0.41464    0.41487    1.18585   1.00
C3       0.43890    0.38898    1.12251   1.00
C3       0.41539    0.37974    1.20752   1.00
C3       0.39179    0.44115    1.12238   1.00
C3       0.41403    0.44998    1.20759   1.00
C2       0.41506    0.41485    1.05982   1.00
C2       0.41506    0.41485    1.27018   1.00
C3a      0.43887    0.38873    1.08099   1.00
C3       0.41558    0.37981    1.24882   1.00
C3       0.39168    0.44095    1.08111   1.00
C3a      0.41421    0.45018    1.24903   1.00
H1       0.45767    0.36881    1.13794   1.00
H1       0.41547    0.35195    1.19250   1.00
C5       0.46446    0.36057    1.05910   1.00
H1       0.41611    0.35229    1.26433   1.00
H1       0.37300    0.46112    1.06556   1.00
C5       0.41349    0.48857    1.27035   1.00
H1       0.41456    0.47769    1.19247   1.00
H1       0.37262    0.46134    1.13730   1.00
H2       0.38569    0.50376    1.26337   1.00
H2       0.41414    0.48410    1.30247   1.00
N1       0.44682    0.51267    1.25895   1.00
C6       0.45396    0.52706    1.22310   1.00
C6       0.47578    0.52484    1.28257   1.00
C6       0.48799    0.54854    1.22373   1.00
C6       0.50187    0.54712    1.26156   1.00
H3       0.43560    0.52235    1.19781   1.00
H3       0.47796    0.51785    1.31331   1.00
H3       0.50120    0.56361    1.19936   1.00
H3       0.52806    0.56081    1.27258   1.00
H2       0.45974    0.36465    1.02728   1.00
H2       0.49583    0.36625    1.06501   1.00
N1       0.45529    0.32050    1.07023   1.00
C6       0.44127    0.29017    1.04578   1.00
C6       0.45875    0.30350    1.10785   1.00
C6       0.43652    0.25675    1.06777   1.00
C6       0.44724    0.26494    1.10591   1.00
H3       0.43524    0.29308    1.01492   1.00
H3       0.46848    0.31873    1.13376   1.00
H3       0.42614    0.22896    1.05705   1.00
H3       0.44661    0.24465    1.13005   1.00
C4       0.41513    0.64415    0.91536   1.00
C4       0.41487    0.68585    0.91464   1.00
C3       0.38898    0.62251    0.93890   1.00
C3       0.37974    0.70752    0.91539   1.00
C3       0.44115    0.62238    0.89179   1.00
C3       0.44998    0.70759    0.91403   1.00
C2       0.41485    0.55982    0.91506   1.00
C2       0.41485    0.77018    0.91506   1.00
C3a      0.38873    0.58099    0.93887   1.00
C3       0.37981    0.74882    0.91558   1.00
C3       0.44095    0.58111    0.89168   1.00
C3a      0.45018    0.74903    0.91421   1.00
H1       0.36881    0.63794    0.95767   1.00
H1       0.35195    0.69250    0.91547   1.00
C5       0.36057    0.55910    0.96446   1.00
H1       0.35229    0.76433    0.91611   1.00
H1       0.46112    0.56556    0.87300   1.00
C5       0.48857    0.77035    0.91349   1.00
H1       0.47769    0.69247    0.91456   1.00
H1       0.46134    0.63730    0.87262   1.00
H2       0.50376    0.76337    0.88569   1.00
H2       0.48410    0.80247    0.91414   1.00
N1       0.51267    0.75895    0.94682   1.00
C6       0.52706    0.72310    0.95396   1.00
C6       0.52484    0.78257    0.97578   1.00
C6       0.54854    0.72373    0.98799   1.00
C6       0.54712    0.76156    1.00187   1.00
H3       0.52235    0.69781    0.93560   1.00
H3       0.51785    0.81331    0.97796   1.00
H3       0.56361    0.69936    1.00120   1.00
H3       0.56081    0.77258    1.02806   1.00
H2       0.36465    0.52728    0.95974   1.00
H2       0.36625    0.56501    0.99583   1.00
N1       0.32050    0.57023    0.95529   1.00
C6       0.29017    0.54578    0.94127   1.00
C6       0.30350    0.60785    0.95875   1.00
C6       0.25675    0.56777    0.93652   1.00
C6       0.26494    0.60591    0.94724   1.00
H3       0.29308    0.51492    0.93524   1.00
H3       0.31873    0.63376    0.96848   1.00
H3       0.22896    0.55705    0.92614   1.00
H3       0.24465    0.63005    0.94661   1.00
C4       0.18585    0.41536    0.91487   1.00
C4       0.14415    0.41464    0.91513   1.00
C3       0.20749    0.43890    0.94102   1.00
C3       0.12248    0.41539    0.95026   1.00
C3       0.20762    0.39179    0.88885   1.00
C3       0.12241    0.41403    0.88002   1.00
C2       0.27018    0.41506    0.91515   1.00
C2       0.05982    0.41506    0.91515   1.00
C3a      0.24901    0.43887    0.94127   1.00
C3       0.08118    0.41558    0.95019   1.00
C3       0.24889    0.39168    0.88905   1.00
C3a      0.08097    0.41421    0.87982   1.00
H1       0.19206    0.45767    0.96119   1.00
H1       0.13750    0.41547    0.97805   1.00
C5       0.27090    0.46446    0.96943   1.00
H1       0.06567    0.41611    0.97771   1.00
H1       0.26444    0.37300    0.86888   1.00
C5       0.05965    0.41349    0.84143   1.00
H1       0.13753    0.41456    0.85231   1.00
H1       0.19270    0.37262    0.86866   1.00
H2       0.06663    0.38569    0.82624   1.00
H2       0.02753    0.41414    0.84590   1.00
N1       0.07105    0.44682    0.81733   1.00
C6       0.10690    0.45396    0.80294   1.00
C6       0.04743    0.47578    0.80516   1.00
C6       0.10627    0.48799    0.78146   1.00
C6       0.06844    0.50187    0.78288   1.00
H3       0.13219    0.43560    0.80765   1.00
H3       0.01669    0.47796    0.81215   1.00
H3       0.13064    0.50120    0.76639   1.00
H3       0.05742    0.52806    0.76919   1.00
H2       0.30272    0.45974    0.96535   1.00
H2       0.26499    0.49583    0.96375   1.00
N1       0.25977    0.45529    1.00950   1.00
C6       0.28422    0.44127    1.03983   1.00
C6       0.22215    0.45875    1.02650   1.00
C6       0.26223    0.43652    1.07325   1.00
C6       0.22409    0.44724    1.06506   1.00
H3       0.31508    0.43524    1.03692   1.00
H3       0.19624    0.46848    1.01127   1.00
H3       0.27295    0.42614    1.10104   1.00
H3       0.19995    0.44661    1.08535   1.00
C4       0.64415    0.41536    0.91513   1.00
C4       0.68585    0.41464    0.91487   1.00
C3       0.62251    0.43890    0.88898   1.00
C3       0.70752    0.41539    0.87974   1.00
C3       0.62238    0.39179    0.94115   1.00
C3       0.70759    0.41403    0.94998   1.00
C2       0.55982    0.41506    0.91485   1.00
C2       0.77018    0.41506    0.91485   1.00
C3a      0.58099    0.43887    0.88873   1.00
C3       0.74882    0.41558    0.87981   1.00
C3       0.58111    0.39168    0.94095   1.00
C3a      0.74903    0.41421    0.95018   1.00
H1       0.63794    0.45767    0.86881   1.00
H1       0.69250    0.41547    0.85195   1.00
C5       0.55910    0.46446    0.86057   1.00
H1       0.76433    0.41611    0.85229   1.00
H1       0.56556    0.37300    0.96112   1.00
C5       0.77035    0.41349    0.98857   1.00
H1       0.69247    0.41456    0.97769   1.00
H1       0.63730    0.37262    0.96134   1.00
H2       0.76337    0.38569    1.00376   1.00
H2       0.80247    0.41414    0.98410   1.00
N1       0.75895    0.44682    1.01267   1.00
C6       0.72310    0.45396    1.02706   1.00
C6       0.78257    0.47578    1.02484   1.00
C6       0.72373    0.48799    1.04854   1.00
C6       0.76156    0.50187    1.04712   1.00
H3       0.69781    0.43560    1.02235   1.00
H3       0.81331    0.47796    1.01785   1.00
H3       0.69936    0.50120    1.06361   1.00
H3       0.77258    0.52806    1.06081   1.00
H2       0.52728    0.45974    0.86465   1.00
H2       0.56501    0.49583    0.86625   1.00
N1       0.57023    0.45529    0.82050   1.00
C6       0.54578    0.44127    0.79017   1.00
C6       0.60785    0.45875    0.80350   1.00
C6       0.56777    0.43652    0.75675   1.00
C6       0.60591    0.44724    0.76494   1.00
H3       0.51492    0.43524    0.79308   1.00
H3       0.63376    0.46848    0.81873   1.00
H3       0.55705    0.42614    0.72896   1.00
H3       0.63005    0.44661    0.74465   1.00
C4       0.41487    0.18585    0.91536   1.00
C4       0.41513    0.14415    0.91464   1.00
C3       0.44102    0.20749    0.93890   1.00
C3       0.45026    0.12248    0.91539   1.00
C3       0.38885    0.20762    0.89179   1.00
C3       0.38002    0.12241    0.91403   1.00
C2       0.41515    0.27018    0.91506   1.00
C2       0.41515    0.05982    0.91506   1.00
C3a      0.44127    0.24901    0.93887   1.00
C3       0.45019    0.08118    0.91558   1.00
C3       0.38905    0.24889    0.89168   1.00
C3a      0.37982    0.08097    0.91421   1.00
H1       0.46119    0.19206    0.95767   1.00
H1       0.47805    0.13750    0.91547   1.00
C5       0.46943    0.27090    0.96446   1.00
H1       0.47771    0.06567    0.91611   1.00
H1       0.36888    0.26444    0.87300   1.00
C5       0.34143    0.05965    0.91349   1.00
H1       0.35231    0.13753    0.91456   1.00
H1       0.36866    0.19270    0.87262   1.00
H2       0.32624    0.06663    0.88569   1.00
H2       0.34590    0.02753    0.91414   1.00
N1       0.31733    0.07105    0.94682   1.00
C6       0.30294    0.10690    0.95396   1.00
C6       0.30516    0.04743    0.97578   1.00
C6       0.28146    0.10627    0.98799   1.00
C6       0.28288    0.06844    1.00187   1.00
H3       0.30765    0.13219    0.93560   1.00
H3       0.31215    0.01669    0.97796   1.00
H3       0.26639    0.13064    1.00120   1.00
H3       0.26919    0.05742    1.02806   1.00
H2       0.46535    0.30272    0.95974   1.00
H2       0.46375    0.26499    0.99583   1.00
N1       0.50950    0.25977    0.95529   1.00
C6       0.53983    0.28422    0.94127   1.00
C6       0.52650    0.22215    0.95875   1.00
C6       0.57325    0.26223    0.93652   1.00
C6       0.56506    0.22409    0.94724   1.00
H3       0.53692    0.31508    0.93524   1.00
H3       0.51127    0.19624    0.96848   1.00
H3       0.60104    0.27295    0.92614   1.00
H3       0.58535    0.19995    0.94661   1.00
C4       0.41536    0.41487    0.68585   1.00
C4       0.41464    0.41513    0.64415   1.00
C3       0.43890    0.44102    0.70749   1.00
C3       0.41539    0.45026    0.62248   1.00
C3       0.39179    0.38885    0.70762   1.00
C3       0.41403    0.38002    0.62241   1.00
C2       0.41506    0.41515    0.77018   1.00
C2       0.41506    0.41515    0.55982   1.00
C3a      0.43887    0.44127    0.74901   1.00
C3       0.41558    0.45019    0.58118   1.00
C3       0.39168    0.38905    0.74889   1.00
C3a      0.41421    0.37982    0.58097   1.00
H1       0.45767    0.46119    0.69206   1.00
H1       0.41547    0.47805    0.63750   1.00
C5       0.46446    0.46943    0.77090   1.00
H1       0.41611    0.47771    0.56567   1.00
H1       0.37300    0.36888    0.76444   1.00
C5       0.41349    0.34143    0.55965   1.00
H1       0.41456    0.35231    0.63753   1.00
H1       0.37262    0.36866    0.69270   1.00
H2       0.38569    0.32624    0.56663   1.00
H2       0.41414    0.34590    0.52753   1.00
N1       0.44682    0.31733    0.57105   1.00
C6       0.45396    0.30294    0.60690   1.00
C6       0.47578    0.30516    0.54743   1.00
C6       0.48799    0.28146    0.60627   1.00
C6       0.50187    0.28288    0.56844   1.00
H3       0.43560    0.30765    0.63219   1.00
H3       0.47796    0.31215    0.51669   1.00
H3       0.50120    0.26639    0.63064   1.00
H3       0.52806    0.26919    0.55742   1.00
H2       0.45974    0.46535    0.80272   1.00
H2       0.49583    0.46375    0.76499   1.00
N1       0.45529    0.50950    0.75977   1.00
C6       0.44127    0.53983    0.78422   1.00
C6       0.45875    0.52650    0.72215   1.00
C6       0.43652    0.57325    0.76223   1.00
C6       0.44724    0.56506    0.72409   1.00
H3       0.43524    0.53692    0.81508   1.00
H3       0.46848    0.51127    0.69624   1.00
H3       0.42614    0.60104    0.77295   1.00
H3       0.44661    0.58535    0.69995   1.00
C4       0.41536    0.91513    0.64415   1.00
C4       0.41464    0.91487    0.68585   1.00
C3       0.43890    0.88898    0.62251   1.00
C3       0.41539    0.87974    0.70752   1.00
C3       0.39179    0.94115    0.62238   1.00
C3       0.41403    0.94998    0.70759   1.00
C2       0.41506    0.91485    0.55982   1.00
C2       0.41506    0.91485    0.77018   1.00
C3a      0.43887    0.88873    0.58099   1.00
C3       0.41558    0.87981    0.74882   1.00
C3       0.39168    0.94095    0.58111   1.00
C3a      0.41421    0.95018    0.74903   1.00
H1       0.45767    0.86881    0.63794   1.00
H1       0.41547    0.85195    0.69250   1.00
C5       0.46446    0.86057    0.55910   1.00
H1       0.41611    0.85229    0.76433   1.00
H1       0.37300    0.96112    0.56556   1.00
C5       0.41349    0.98857    0.77035   1.00
H1       0.41456    0.97769    0.69247   1.00
H1       0.37262    0.96134    0.63730   1.00
H2       0.38569    1.00376    0.76337   1.00
H2       0.41414    0.98410    0.80247   1.00
N1       0.44682    1.01267    0.75895   1.00
C6       0.45396    1.02706    0.72310   1.00
C6       0.47578    1.02484    0.78257   1.00
C6       0.48799    1.04854    0.72373   1.00
C6       0.50187    1.04712    0.76156   1.00
H3       0.43560    1.02235    0.69781   1.00
H3       0.47796    1.01785    0.81331   1.00
H3       0.50120    1.06361    0.69936   1.00
H3       0.52806    1.06081    0.77258   1.00
H2       0.45974    0.86465    0.52728   1.00
H2       0.49583    0.86625    0.56501   1.00
N1       0.45529    0.82050    0.57023   1.00
C6       0.44127    0.79017    0.54578   1.00
C6       0.45875    0.80350    0.60785   1.00
C6       0.43652    0.75675    0.56777   1.00
C6       0.44724    0.76494    0.60591   1.00
H3       0.43524    0.79308    0.51492   1.00
H3       0.46848    0.81873    0.63376   1.00
H3       0.42614    0.72896    0.55705   1.00
H3       0.44661    0.74465    0.63005   1.00
C4       0.41513    1.14415    0.41536   1.00
C4       0.41487    1.18585    0.41464   1.00
C3       0.38898    1.12251    0.43890   1.00
C3       0.37974    1.20752    0.41539   1.00
C3       0.44115    1.12238    0.39179   1.00
C3       0.44998    1.20759    0.41403   1.00
C2       0.41485    1.05982    0.41506   1.00
C2       0.41485    1.27018    0.41506   1.00
C3a      0.38873    1.08099    0.43887   1.00
C3       0.37981    1.24882    0.41558   1.00
C3       0.44095    1.08111    0.39168   1.00
C3a      0.45018    1.24903    0.41421   1.00
H1       0.36881    1.13794    0.45767   1.00
H1       0.35195    1.19250    0.41547   1.00
C5       0.36057    1.05910    0.46446   1.00
H1       0.35229    1.26433    0.41611   1.00
H1       0.46112    1.06556    0.37300   1.00
C5       0.48857    1.27035    0.41349   1.00
H1       0.47769    1.19247    0.41456   1.00
H1       0.46134    1.13730    0.37262   1.00
H2       0.50376    1.26337    0.38569   1.00
H2       0.48410    1.30247    0.41414   1.00
N1       0.51267    1.25895    0.44682   1.00
C6       0.52706    1.22310    0.45396   1.00
C6       0.52484    1.28257    0.47578   1.00
C6       0.54854    1.22373    0.48799   1.00
C6       0.54712    1.26156    0.50187   1.00
H3       0.52235    1.19781    0.43560   1.00
H3       0.51785    1.31331    0.47796   1.00
H3       0.56361    1.19936    0.50120   1.00
H3       0.56081    1.27258    0.52806   1.00
H2       0.36465    1.02728    0.45974   1.00
H2       0.36625    1.06501    0.49583   1.00
N1       0.32050    1.07023    0.45529   1.00
C6       0.29017    1.04578    0.44127   1.00
C6       0.30350    1.10785    0.45875   1.00
C6       0.25675    1.06777    0.43652   1.00
C6       0.26494    1.10591    0.44724   1.00
H3       0.29308    1.01492    0.43524   1.00
H3       0.31873    1.13376    0.46848   1.00
H3       0.22896    1.05705    0.42614   1.00
H3       0.24465    1.13005    0.44661   1.00
C4       0.18585    0.91536    0.41487   1.00
C4       0.14415    0.91464    0.41513   1.00
C3       0.20749    0.93890    0.44102   1.00
C3       0.12248    0.91539    0.45026   1.00
C3       0.20762    0.89179    0.38885   1.00
C3       0.12241    0.91403    0.38002   1.00
C2       0.27018    0.91506    0.41515   1.00
C2       0.05982    0.91506    0.41515   1.00
C3a      0.24901    0.93887    0.44127   1.00
C3       0.08118    0.91558    0.45019   1.00
C3       0.24889    0.89168    0.38905   1.00
C3a      0.08097    0.91421    0.37982   1.00
H1       0.19206    0.95767    0.46119   1.00
H1       0.13750    0.91547    0.47805   1.00
C5       0.27090    0.96446    0.46943   1.00
H1       0.06567    0.91611    0.47771   1.00
H1       0.26444    0.87300    0.36888   1.00
C5       0.05965    0.91349    0.34143   1.00
H1       0.13753    0.91456    0.35231   1.00
H1       0.19270    0.87262    0.36866   1.00
H2       0.06663    0.88569    0.32624   1.00
H2       0.02753    0.91414    0.34590   1.00
N1       0.07105    0.94682    0.31733   1.00
C6       0.10690    0.95396    0.30294   1.00
C6       0.04743    0.97578    0.30516   1.00
C6       0.10627    0.98799    0.28146   1.00
C6       0.06844    1.00187    0.28288   1.00
H3       0.13219    0.93560    0.30765   1.00
H3       0.01669    0.97796    0.31215   1.00
H3       0.13064    1.00120    0.26639   1.00
H3       0.05742    1.02806    0.26919   1.00
H2       0.30272    0.95974    0.46535   1.00
H2       0.26499    0.99583    0.46375   1.00
N1       0.25977    0.95529    0.50950   1.00
C6       0.28422    0.94127    0.53983   1.00
C6       0.22215    0.95875    0.52650   1.00
C6       0.26223    0.93652    0.57325   1.00
C6       0.22409    0.94724    0.56506   1.00
H3       0.31508    0.93524    0.53692   1.00
H3       0.19624    0.96848    0.51127   1.00
H3       0.27295    0.92614    0.60104   1.00
H3       0.19995    0.94661    0.58535   1.00
C4       0.64415    0.91536    0.41513   1.00
C4       0.68585    0.91464    0.41487   1.00
C3       0.62251    0.93890    0.38898   1.00
C3       0.70752    0.91539    0.37974   1.00
C3       0.62238    0.89179    0.44115   1.00
C3       0.70759    0.91403    0.44998   1.00
C2       0.55982    0.91506    0.41485   1.00
C2       0.77018    0.91506    0.41485   1.00
C3a      0.58099    0.93887    0.38873   1.00
C3       0.74882    0.91558    0.37981   1.00
C3       0.58111    0.89168    0.44095   1.00
C3a      0.74903    0.91421    0.45018   1.00
H1       0.63794    0.95767    0.36881   1.00
H1       0.69250    0.91547    0.35195   1.00
C5       0.55910    0.96446    0.36057   1.00
H1       0.76433    0.91611    0.35229   1.00
H1       0.56556    0.87300    0.46112   1.00
C5       0.77035    0.91349    0.48857   1.00
H1       0.69247    0.91456    0.47769   1.00
H1       0.63730    0.87262    0.46134   1.00
H2       0.76337    0.88569    0.50376   1.00
H2       0.80247    0.91414    0.48410   1.00
N1       0.75895    0.94682    0.51267   1.00
C6       0.72310    0.95396    0.52706   1.00
C6       0.78257    0.97578    0.52484   1.00
C6       0.72373    0.98799    0.54854   1.00
C6       0.76156    1.00187    0.54712   1.00
H3       0.69781    0.93560    0.52235   1.00
H3       0.81331    0.97796    0.51785   1.00
H3       0.69936    1.00120    0.56361   1.00
H3       0.77258    1.02806    0.56081   1.00
H2       0.52728    0.95974    0.36465   1.00
H2       0.56501    0.99583    0.36625   1.00
N1       0.57023    0.95529    0.32050   1.00
C6       0.54578    0.94127    0.29017   1.00
C6       0.60785    0.95875    0.30350   1.00
C6       0.56777    0.93652    0.25675   1.00
C6       0.60591    0.94724    0.26494   1.00
H3       0.51492    0.93524    0.29308   1.00
H3       0.63376    0.96848    0.31873   1.00
H3       0.55705    0.92614    0.22896   1.00
H3       0.63005    0.94661    0.24465   1.00
C4       0.41487    0.68585    0.41536   1.00
C4       0.41513    0.64415    0.41464   1.00
C3       0.44102    0.70749    0.43890   1.00
C3       0.45026    0.62248    0.41539   1.00
C3       0.38885    0.70762    0.39179   1.00
C3       0.38002    0.62241    0.41403   1.00
C2       0.41515    0.77018    0.41506   1.00
C2       0.41515    0.55982    0.41506   1.00
C3a      0.44127    0.74901    0.43887   1.00
C3       0.45019    0.58118    0.41558   1.00
C3       0.38905    0.74889    0.39168   1.00
C3a      0.37982    0.58097    0.41421   1.00
H1       0.46119    0.69206    0.45767   1.00
H1       0.47805    0.63750    0.41547   1.00
C5       0.46943    0.77090    0.46446   1.00
H1       0.47771    0.56567    0.41611   1.00
H1       0.36888    0.76444    0.37300   1.00
C5       0.34143    0.55965    0.41349   1.00
H1       0.35231    0.63753    0.41456   1.00
H1       0.36866    0.69270    0.37262   1.00
H2       0.32624    0.56663    0.38569   1.00
H2       0.34590    0.52753    0.41414   1.00
N1       0.31733    0.57105    0.44682   1.00
C6       0.30294    0.60690    0.45396   1.00
C6       0.30516    0.54743    0.47578   1.00
C6       0.28146    0.60627    0.48799   1.00
C6       0.28288    0.56844    0.50187   1.00
H3       0.30765    0.63219    0.43560   1.00
H3       0.31215    0.51669    0.47796   1.00
H3       0.26639    0.63064    0.50120   1.00
H3       0.26919    0.55742    0.52806   1.00
H2       0.46535    0.80272    0.45974   1.00
H2       0.46375    0.76499    0.49583   1.00
N1       0.50950    0.75977    0.45529   1.00
C6       0.53983    0.78422    0.44127   1.00
C6       0.52650    0.72215    0.45875   1.00
C6       0.57325    0.76223    0.43652   1.00
C6       0.56506    0.72409    0.44724   1.00
H3       0.53692    0.81508    0.43524   1.00
H3       0.51127    0.69624    0.46848   1.00
H3       0.60104    0.77295    0.42614   1.00
H3       0.58535    0.69995    0.44661   1.00
C4       0.41536    0.91487    0.18585   1.00
C4       0.41464    0.91513    0.14415   1.00
C3       0.43890    0.94102    0.20749   1.00
C3       0.41539    0.95026    0.12248   1.00
C3       0.39179    0.88885    0.20762   1.00
C3       0.41403    0.88002    0.12241   1.00
C2       0.41506    0.91515    0.27018   1.00
C2       0.41506    0.91515    0.05982   1.00
C3a      0.43887    0.94127    0.24901   1.00
C3       0.41558    0.95019    0.08118   1.00
C3       0.39168    0.88905    0.24889   1.00
C3a      0.41421    0.87982    0.08097   1.00
H1       0.45767    0.96119    0.19206   1.00
H1       0.41547    0.97805    0.13750   1.00
C5       0.46446    0.96943    0.27090   1.00
H1       0.41611    0.97771    0.06567   1.00
H1       0.37300    0.86888    0.26444   1.00
C5       0.41349    0.84143    0.05965   1.00
H1       0.41456    0.85231    0.13753   1.00
H1       0.37262    0.86866    0.19270   1.00
H2       0.38569    0.82624    0.06663   1.00
H2       0.41414    0.84590    0.02753   1.00
N1       0.44682    0.81733    0.07105   1.00
C6       0.45396    0.80294    0.10690   1.00
C6       0.47578    0.80516    0.04743   1.00
C6       0.48799    0.78146    0.10627   1.00
C6       0.50187    0.78288    0.06844   1.00
H3       0.43560    0.80765    0.13219   1.00
H3       0.47796    0.81215    0.01669   1.00
H3       0.50120    0.76639    0.13064   1.00
H3       0.52806    0.76919    0.05742   1.00
H2       0.45974    0.96535    0.30272   1.00
H2       0.49583    0.96375    0.26499   1.00
N1       0.45529    1.00950    0.25977   1.00
C6       0.44127    1.03983    0.28422   1.00
C6       0.45875    1.02650    0.22215   1.00
C6       0.43652    1.07325    0.26223   1.00
C6       0.44724    1.06506    0.22409   1.00
H3       0.43524    1.03692    0.31508   1.00
H3       0.46848    1.01127    0.19624   1.00
H3       0.42614    1.10104    0.27295   1.00
H3       0.44661    1.08535    0.19995   1.00
C4       0.91536    0.41513    0.64415   1.00
C4       0.91464    0.41487    0.68585   1.00
C3       0.93890    0.38898    0.62251   1.00
C3       0.91539    0.37974    0.70752   1.00
C3       0.89179    0.44115    0.62238   1.00
C3       0.91403    0.44998    0.70759   1.00
C2       0.91506    0.41485    0.55982   1.00
C2       0.91506    0.41485    0.77018   1.00
C3a      0.93887    0.38873    0.58099   1.00
C3       0.91558    0.37981    0.74882   1.00
C3       0.89168    0.44095    0.58111   1.00
C3a      0.91421    0.45018    0.74903   1.00
H1       0.95767    0.36881    0.63794   1.00
H1       0.91547    0.35195    0.69250   1.00
C5       0.96446    0.36057    0.55910   1.00
H1       0.91611    0.35229    0.76433   1.00
H1       0.87300    0.46112    0.56556   1.00
C5       0.91349    0.48857    0.77035   1.00
H1       0.91456    0.47769    0.69247   1.00
H1       0.87262    0.46134    0.63730   1.00
H2       0.88569    0.50376    0.76337   1.00
H2       0.91414    0.48410    0.80247   1.00
N1       0.94682    0.51267    0.75895   1.00
C6       0.95396    0.52706    0.72310   1.00
C6       0.97578    0.52484    0.78257   1.00
C6       0.98799    0.54854    0.72373   1.00
C6       1.00187    0.54712    0.76156   1.00
H3       0.93560    0.52235    0.69781   1.00
H3       0.97796    0.51785    0.81331   1.00
H3       1.00120    0.56361    0.69936   1.00
H3       1.02806    0.56081    0.77258   1.00
H2       0.95974    0.36465    0.52728   1.00
H2       0.99583    0.36625    0.56501   1.00
N1       0.95529    0.32050    0.57023   1.00
C6       0.94127    0.29017    0.54578   1.00
C6       0.95875    0.30350    0.60785   1.00
C6       0.93652    0.25675    0.56777   1.00
C6       0.94724    0.26494    0.60591   1.00
H3       0.93524    0.29308    0.51492   1.00
H3       0.96848    0.31873    0.63376   1.00
H3       0.92614    0.22896    0.55705   1.00
H3       0.94661    0.24465    0.63005   1.00
C4       0.91513    0.64415    0.41536   1.00
C4       0.91487    0.68585    0.41464   1.00
C3       0.88898    0.62251    0.43890   1.00
C3       0.87974    0.70752    0.41539   1.00
C3       0.94115    0.62238    0.39179   1.00
C3       0.94998    0.70759    0.41403   1.00
C2       0.91485    0.55982    0.41506   1.00
C2       0.91485    0.77018    0.41506   1.00
C3a      0.88873    0.58099    0.43887   1.00
C3       0.87981    0.74882    0.41558   1.00
C3       0.94095    0.58111    0.39168   1.00
C3a      0.95018    0.74903    0.41421   1.00
H1       0.86881    0.63794    0.45767   1.00
H1       0.85195    0.69250    0.41547   1.00
C5       0.86057    0.55910    0.46446   1.00
H1       0.85229    0.76433    0.41611   1.00
H1       0.96112    0.56556    0.37300   1.00
C5       0.98857    0.77035    0.41349   1.00
H1       0.97769    0.69247    0.41456   1.00
H1       0.96134    0.63730    0.37262   1.00
H2       1.00376    0.76337    0.38569   1.00
H2       0.98410    0.80247    0.41414   1.00
N1       1.01267    0.75895    0.44682   1.00
C6       1.02706    0.72310    0.45396   1.00
C6       1.02484    0.78257    0.47578   1.00
C6       1.04854    0.72373    0.48799   1.00
C6       1.04712    0.76156    0.50187   1.00
H3       1.02235    0.69781    0.43560   1.00
H3       1.01785    0.81331    0.47796   1.00
H3       1.06361    0.69936    0.50120   1.00
H3       1.06081    0.77258    0.52806   1.00
H2       0.86465    0.52728    0.45974   1.00
H2       0.86625    0.56501    0.49583   1.00
N1       0.82050    0.57023    0.45529   1.00
C6       0.79017    0.54578    0.44127   1.00
C6       0.80350    0.60785    0.45875   1.00
C6       0.75675    0.56777    0.43652   1.00
C6       0.76494    0.60591    0.44724   1.00
H3       0.79308    0.51492    0.43524   1.00
H3       0.81873    0.63376    0.46848   1.00
H3       0.72896    0.55705    0.42614   1.00
H3       0.74465    0.63005    0.44661   1.00
C4       0.68585    0.41536    0.41487   1.00
C4       0.64415    0.41464    0.41513   1.00
C3       0.70749    0.43890    0.44102   1.00
C3       0.62248    0.41539    0.45026   1.00
C3       0.70762    0.39179    0.38885   1.00
C3       0.62241    0.41403    0.38002   1.00
C2       0.77018    0.41506    0.41515   1.00
C2       0.55982    0.41506    0.41515   1.00
C3a      0.74901    0.43887    0.44127   1.00
C3       0.58118    0.41558    0.45019   1.00
C3       0.74889    0.39168    0.38905   1.00
C3a      0.58097    0.41421    0.37982   1.00
H1       0.69206    0.45767    0.46119   1.00
H1       0.63750    0.41547    0.47805   1.00
C5       0.77090    0.46446    0.46943   1.00
H1       0.56567    0.41611    0.47771   1.00
H1       0.76444    0.37300    0.36888   1.00
C5       0.55965    0.41349    0.34143   1.00
H1       0.63753    0.41456    0.35231   1.00
H1       0.69270    0.37262    0.36866   1.00
H2       0.56663    0.38569    0.32624   1.00
H2       0.52753    0.41414    0.34590   1.00
N1       0.57105    0.44682    0.31733   1.00
C6       0.60690    0.45396    0.30294   1.00
C6       0.54743    0.47578    0.30516   1.00
C6       0.60627    0.48799    0.28146   1.00
C6       0.56844    0.50187    0.28288   1.00
H3       0.63219    0.43560    0.30765   1.00
H3       0.51669    0.47796    0.31215   1.00
H3       0.63064    0.50120    0.26639   1.00
H3       0.55742    0.52806    0.26919   1.00
H2       0.80272    0.45974    0.46535   1.00
H2       0.76499    0.49583    0.46375   1.00
N1       0.75977    0.45529    0.50950   1.00
C6       0.78422    0.44127    0.53983   1.00
C6       0.72215    0.45875    0.52650   1.00
C6       0.76223    0.43652    0.57325   1.00
C6       0.72409    0.44724    0.56506   1.00
H3       0.81508    0.43524    0.53692   1.00
H3       0.69624    0.46848    0.51127   1.00
H3       0.77295    0.42614    0.60104   1.00
H3       0.69995    0.44661    0.58535   1.00
C4       1.14415    0.41536    0.41513   1.00
C4       1.18585    0.41464    0.41487   1.00
C3       1.12251    0.43890    0.38898   1.00
C3       1.20752    0.41539    0.37974   1.00
C3       1.12238    0.39179    0.44115   1.00
C3       1.20759    0.41403    0.44998   1.00
C2       1.05982    0.41506    0.41485   1.00
C2       1.27018    0.41506    0.41485   1.00
C3a      1.08099    0.43887    0.38873   1.00
C3       1.24882    0.41558    0.37981   1.00
C3       1.08111    0.39168    0.44095   1.00
C3a      1.24903    0.41421    0.45018   1.00
H1       1.13794    0.45767    0.36881   1.00
H1       1.19250    0.41547    0.35195   1.00
C5       1.05910    0.46446    0.36057   1.00
H1       1.26433    0.41611    0.35229   1.00
H1       1.06556    0.37300    0.46112   1.00
C5       1.27035    0.41349    0.48857   1.00
H1       1.19247    0.41456    0.47769   1.00
H1       1.13730    0.37262    0.46134   1.00
H2       1.26337    0.38569    0.50376   1.00
H2       1.30247    0.41414    0.48410   1.00
N1       1.25895    0.44682    0.51267   1.00
C6       1.22310    0.45396    0.52706   1.00
C6       1.28257    0.47578    0.52484   1.00
C6       1.22373    0.48799    0.54854   1.00
C6       1.26156    0.50187    0.54712   1.00
H3       1.19781    0.43560    0.52235   1.00
H3       1.31331    0.47796    0.51785   1.00
H3       1.19936    0.50120    0.56361   1.00
H3       1.27258    0.52806    0.56081   1.00
H2       1.02728    0.45974    0.36465   1.00
H2       1.06501    0.49583    0.36625   1.00
N1       1.07023    0.45529    0.32050   1.00
C6       1.04578    0.44127    0.29017   1.00
C6       1.10785    0.45875    0.30350   1.00
C6       1.06777    0.43652    0.25675   1.00
C6       1.10591    0.44724    0.26494   1.00
H3       1.01492    0.43524    0.29308   1.00
H3       1.13376    0.46848    0.31873   1.00
H3       1.05705    0.42614    0.22896   1.00
H3       1.13005    0.44661    0.24465   1.00
C4       0.91487    0.18585    0.41536   1.00
C4       0.91513    0.14415    0.41464   1.00
C3       0.94102    0.20749    0.43890   1.00
C3       0.95026    0.12248    0.41539   1.00
C3       0.88885    0.20762    0.39179   1.00
C3       0.88002    0.12241    0.41403   1.00
C2       0.91515    0.27018    0.41506   1.00
C2       0.91515    0.05982    0.41506   1.00
C3a      0.94127    0.24901    0.43887   1.00
C3       0.95019    0.08118    0.41558   1.00
C3       0.88905    0.24889    0.39168   1.00
C3a      0.87982    0.08097    0.41421   1.00
H1       0.96119    0.19206    0.45767   1.00
H1       0.97805    0.13750    0.41547   1.00
C5       0.96943    0.27090    0.46446   1.00
H1       0.97771    0.06567    0.41611   1.00
H1       0.86888    0.26444    0.37300   1.00
C5       0.84143    0.05965    0.41349   1.00
H1       0.85231    0.13753    0.41456   1.00
H1       0.86866    0.19270    0.37262   1.00
H2       0.82624    0.06663    0.38569   1.00
H2       0.84590    0.02753    0.41414   1.00
N1       0.81733    0.07105    0.44682   1.00
C6       0.80294    0.10690    0.45396   1.00
C6       0.80516    0.04743    0.47578   1.00
C6       0.78146    0.10627    0.48799   1.00
C6       0.78288    0.06844    0.50187   1.00
H3       0.80765    0.13219    0.43560   1.00
H3       0.81215    0.01669    0.47796   1.00
H3       0.76639    0.13064    0.50120   1.00
H3       0.76919    0.05742    0.52806   1.00
H2       0.96535    0.30272    0.45974   1.00
H2       0.96375    0.26499    0.49583   1.00
N1       1.00950    0.25977    0.45529   1.00
C6       1.03983    0.28422    0.44127   1.00
C6       1.02650    0.22215    0.45875   1.00
C6       1.07325    0.26223    0.43652   1.00
C6       1.06506    0.22409    0.44724   1.00
H3       1.03692    0.31508    0.43524   1.00
H3       1.01127    0.19624    0.46848   1.00
H3       1.10104    0.27295    0.42614   1.00
H3       1.08535    0.19995    0.44661   1.00
C4       0.91536    0.41487    0.18585   1.00
C4       0.91464    0.41513    0.14415   1.00
C3       0.93890    0.44102    0.20749   1.00
C3       0.91539    0.45026    0.12248   1.00
C3       0.89179    0.38885    0.20762   1.00
C3       0.91403    0.38002    0.12241   1.00
C2       0.91506    0.41515    0.27018   1.00
C2       0.91506    0.41515    0.05982   1.00
C3a      0.93887    0.44127    0.24901   1.00
C3       0.91558    0.45019    0.08118   1.00
C3       0.89168    0.38905    0.24889   1.00
C3a      0.91421    0.37982    0.08097   1.00
H1       0.95767    0.46119    0.19206   1.00
H1       0.91547    0.47805    0.13750   1.00
C5       0.96446    0.46943    0.27090   1.00
H1       0.91611    0.47771    0.06567   1.00
H1       0.87300    0.36888    0.26444   1.00
C5       0.91349    0.34143    0.05965   1.00
H1       0.91456    0.35231    0.13753   1.00
H1       0.87262    0.36866    0.19270   1.00
H2       0.88569    0.32624    0.06663   1.00
H2       0.91414    0.34590    0.02753   1.00
N1       0.94682    0.31733    0.07105   1.00
C6       0.95396    0.30294    0.10690   1.00
C6       0.97578    0.30516    0.04743   1.00
C6       0.98799    0.28146    0.10627   1.00
C6       1.00187    0.28288    0.06844   1.00
H3       0.93560    0.30765    0.13219   1.00
H3       0.97796    0.31215    0.01669   1.00
H3       1.00120    0.26639    0.13064   1.00
H3       1.02806    0.26919    0.05742   1.00
H2       0.95974    0.46535    0.30272   1.00
H2       0.99583    0.46375    0.26499   1.00
N1       0.95529    0.50950    0.25977   1.00
C6       0.94127    0.53983    0.28422   1.00
C6       0.95875    0.52650    0.22215   1.00
C6       0.93652    0.57325    0.26223   1.00
C6       0.94724    0.56506    0.22409   1.00
H3       0.93524    0.53692    0.31508   1.00
H3       0.96848    0.51127    0.19624   1.00
H3       0.92614    0.60104    0.27295   1.00
H3       0.94661    0.58535    0.19995   1.00
