data_IRMOF10_SG202_interpen_Ligand10cp_label_e.

_audit_creation_method             'generated by an auxiliary program of Tobunporous'

_symmetry_space_group_name_H-M     'P 1'
_symmetry_Int_Tables_number        1
_symmetry_cell_setting             triclinic

_cell_length_a                    34.2800
_cell_length_b                    34.2800
_cell_length_c                    34.2800
_cell_angle_alpha                 90.0000
_cell_angle_beta                  90.0000
_cell_angle_gamma                 90.0000

loop_
_atom_site_label
_atom_site_fract_x
_atom_site_fract_y
_atom_site_fract_z
_atom_site_occupancy
O1       0.75000    0.75000    0.75000   1.00
Zn1      0.71720    0.78280    0.78280   1.00
Zn1      0.78280    0.71720    0.78280   1.00
Zn1      0.78280    0.78280    0.71720   1.00
Zn1      0.71720    0.71720    0.71720   1.00
O2       0.72650    0.77350    0.83820   1.00
O2       0.72650    0.83820    0.77350   1.00
O2       0.66180    0.77350    0.77350   1.00
O2       0.77350    0.72650    0.83820   1.00
O2       0.83820    0.72650    0.77350   1.00
O2       0.77350    0.66180    0.77350   1.00
O2       0.77350    0.83820    0.72650   1.00
O2       0.83820    0.77350    0.72650   1.00
O2       0.77350    0.77350    0.66180   1.00
O2       0.66180    0.72650    0.72650   1.00
O2       0.72650    0.66180    0.72650   1.00
O2       0.72650    0.72650    0.66180   1.00
C1       0.75000    0.75000    0.85520   1.00
C1       0.75000    0.85520    0.75000   1.00
C1       0.64480    0.75000    0.75000   1.00
C1       0.85520    0.75000    0.75000   1.00
C1       0.75000    0.64480    0.75000   1.00
C1       0.75000    0.75000    0.64480   1.00
O1       0.25000    0.25000    0.75000   1.00
Zn1      0.21720    0.28280    0.78280   1.00
Zn1      0.28280    0.21720    0.78280   1.00
Zn1      0.28280    0.28280    0.71720   1.00
Zn1      0.21720    0.21720    0.71720   1.00
O2       0.22650    0.27350    0.83820   1.00
O2       0.22650    0.33820    0.77350   1.00
O2       0.16180    0.27350    0.77350   1.00
O2       0.27350    0.22650    0.83820   1.00
O2       0.33820    0.22650    0.77350   1.00
O2       0.27350    0.16180    0.77350   1.00
O2       0.27350    0.33820    0.72650   1.00
O2       0.33820    0.27350    0.72650   1.00
O2       0.27350    0.27350    0.66180   1.00
O2       0.16180    0.22650    0.72650   1.00
O2       0.22650    0.16180    0.72650   1.00
O2       0.22650    0.22650    0.66180   1.00
C1       0.25000    0.25000    0.85520   1.00
C1       0.25000    0.35520    0.75000   1.00
C1       0.14480    0.25000    0.75000   1.00
C1       0.35520    0.25000    0.75000   1.00
C1       0.25000    0.14480    0.75000   1.00
C1       0.25000    0.25000    0.64480   1.00
O1       0.25000    0.75000    0.25000   1.00
Zn1      0.21720    0.78280    0.28280   1.00
Zn1      0.28280    0.71720    0.28280   1.00
Zn1      0.28280    0.78280    0.21720   1.00
Zn1      0.21720    0.71720    0.21720   1.00
O2       0.22650    0.77350    0.33820   1.00
O2       0.22650    0.83820    0.27350   1.00
O2       0.16180    0.77350    0.27350   1.00
O2       0.27350    0.72650    0.33820   1.00
O2       0.33820    0.72650    0.27350   1.00
O2       0.27350    0.66180    0.27350   1.00
O2       0.27350    0.83820    0.22650   1.00
O2       0.33820    0.77350    0.22650   1.00
O2       0.27350    0.77350    0.16180   1.00
O2       0.16180    0.72650    0.22650   1.00
O2       0.22650    0.66180    0.22650   1.00
O2       0.22650    0.72650    0.16180   1.00
C1       0.25000    0.75000    0.35520   1.00
C1       0.25000    0.85520    0.25000   1.00
C1       0.14480    0.75000    0.25000   1.00
C1       0.35520    0.75000    0.25000   1.00
C1       0.25000    0.64480    0.25000   1.00
C1       0.25000    0.75000    0.14480   1.00
O1       0.75000    0.25000    0.25000   1.00
Zn1      0.71720    0.28280    0.28280   1.00
Zn1      0.78280    0.21720    0.28280   1.00
Zn1      0.78280    0.28280    0.21720   1.00
Zn1      0.71720    0.21720    0.21720   1.00
O2       0.72650    0.27350    0.33820   1.00
O2       0.72650    0.33820    0.27350   1.00
O2       0.66180    0.27350    0.27350   1.00
O2       0.77350    0.22650    0.33820   1.00
O2       0.83820    0.22650    0.27350   1.00
O2       0.77350    0.16180    0.27350   1.00
O2       0.77350    0.33820    0.22650   1.00
O2       0.83820    0.27350    0.22650   1.00
O2       0.77350    0.27350    0.16180   1.00
O2       0.66180    0.22650    0.22650   1.00
O2       0.72650    0.16180    0.22650   1.00
O2       0.72650    0.22650    0.16180   1.00
C1       0.75000    0.25000    0.35520   1.00
C1       0.75000    0.35520    0.25000   1.00
C1       0.64480    0.25000    0.25000   1.00
C1       0.85520    0.25000    0.25000   1.00
C1       0.75000    0.14480    0.25000   1.00
C1       0.75000    0.25000    0.14480   1.00
O1       0.25000    0.25000    0.25000   1.00
Zn1      0.28280    0.21720    0.21720   1.00
Zn1      0.21720    0.28280    0.21720   1.00
Zn1      0.21720    0.21720    0.28280   1.00
Zn1      0.28280    0.28280    0.28280   1.00
O2       0.27350    0.22650    0.16180   1.00
O2       0.27350    0.16180    0.22650   1.00
O2       0.33820    0.22650    0.22650   1.00
O2       0.22650    0.27350    0.16180   1.00
O2       0.16180    0.27350    0.22650   1.00
O2       0.22650    0.33820    0.22650   1.00
O2       0.22650    0.16180    0.27350   1.00
O2       0.16180    0.22650    0.27350   1.00
O2       0.22650    0.22650    0.33820   1.00
O2       0.33820    0.27350    0.27350   1.00
O2       0.27350    0.33820    0.27350   1.00
O2       0.27350    0.27350    0.33820   1.00
C1       0.25000    0.25000    0.14480   1.00
C1       0.25000    0.14480    0.25000   1.00
C1       0.35520    0.25000    0.25000   1.00
C1       0.14480    0.25000    0.25000   1.00
C1       0.25000    0.35520    0.25000   1.00
C1       0.25000    0.25000    0.35520   1.00
O1       0.75000    0.75000    0.25000   1.00
Zn1      0.78280    0.71720    0.21720   1.00
Zn1      0.71720    0.78280    0.21720   1.00
Zn1      0.71720    0.71720    0.28280   1.00
Zn1      0.78280    0.78280    0.28280   1.00
O2       0.77350    0.72650    0.16180   1.00
O2       0.77350    0.66180    0.22650   1.00
O2       0.83820    0.72650    0.22650   1.00
O2       0.72650    0.77350    0.16180   1.00
O2       0.66180    0.77350    0.22650   1.00
O2       0.72650    0.83820    0.22650   1.00
O2       0.72650    0.66180    0.27350   1.00
O2       0.66180    0.72650    0.27350   1.00
O2       0.72650    0.72650    0.33820   1.00
O2       0.83820    0.77350    0.27350   1.00
O2       0.77350    0.83820    0.27350   1.00
O2       0.77350    0.77350    0.33820   1.00
C1       0.75000    0.75000    0.14480   1.00
C1       0.75000    0.64480    0.25000   1.00
C1       0.85520    0.75000    0.25000   1.00
C1       0.64480    0.75000    0.25000   1.00
C1       0.75000    0.85520    0.25000   1.00
C1       0.75000    0.75000    0.35520   1.00
O1       0.75000    0.25000    0.75000   1.00
Zn1      0.78280    0.21720    0.71720   1.00
Zn1      0.71720    0.28280    0.71720   1.00
Zn1      0.71720    0.21720    0.78280   1.00
Zn1      0.78280    0.28280    0.78280   1.00
O2       0.77350    0.22650    0.66180   1.00
O2       0.77350    0.16180    0.72650   1.00
O2       0.83820    0.22650    0.72650   1.00
O2       0.72650    0.27350    0.66180   1.00
O2       0.66180    0.27350    0.72650   1.00
O2       0.72650    0.33820    0.72650   1.00
O2       0.72650    0.16180    0.77350   1.00
O2       0.66180    0.22650    0.77350   1.00
O2       0.72650    0.22650    0.83820   1.00
O2       0.83820    0.27350    0.77350   1.00
O2       0.77350    0.33820    0.77350   1.00
O2       0.77350    0.27350    0.83820   1.00
C1       0.75000    0.25000    0.64480   1.00
C1       0.75000    0.14480    0.75000   1.00
C1       0.85520    0.25000    0.75000   1.00
C1       0.64480    0.25000    0.75000   1.00
C1       0.75000    0.35520    0.75000   1.00
C1       0.75000    0.25000    0.85520   1.00
O1       0.25000    0.75000    0.75000   1.00
Zn1      0.28280    0.71720    0.71720   1.00
Zn1      0.21720    0.78280    0.71720   1.00
Zn1      0.21720    0.71720    0.78280   1.00
Zn1      0.28280    0.78280    0.78280   1.00
O2       0.27350    0.72650    0.66180   1.00
O2       0.27350    0.66180    0.72650   1.00
O2       0.33820    0.72650    0.72650   1.00
O2       0.22650    0.77350    0.66180   1.00
O2       0.16180    0.77350    0.72650   1.00
O2       0.22650    0.83820    0.72650   1.00
O2       0.22650    0.66180    0.77350   1.00
O2       0.16180    0.72650    0.77350   1.00
O2       0.22650    0.72650    0.83820   1.00
O2       0.33820    0.77350    0.77350   1.00
O2       0.27350    0.83820    0.77350   1.00
O2       0.27350    0.77350    0.83820   1.00
C1       0.25000    0.75000    0.64480   1.00
C1       0.25000    0.64480    0.75000   1.00
C1       0.35520    0.75000    0.75000   1.00
C1       0.14480    0.75000    0.75000   1.00
C1       0.25000    0.85520    0.75000   1.00
C1       0.25000    0.75000    0.85520   1.00
O1       0.91500    0.91500    0.91500   1.00
Zn1      0.88220    0.94780    0.94780   1.00
Zn1      0.94780    0.88220    0.94780   1.00
Zn1      0.94780    0.94780    0.88220   1.00
Zn1      0.88220    0.88220    0.88220   1.00
O2       0.89150    0.93850    1.00320   1.00
O2       0.89150    1.00320    0.93850   1.00
O2       0.82680    0.93850    0.93850   1.00
O2       0.93850    0.89150    1.00320   1.00
O2       1.00320    0.89150    0.93850   1.00
O2       0.93850    0.82680    0.93850   1.00
O2       0.93850    1.00320    0.89150   1.00
O2       1.00320    0.93850    0.89150   1.00
O2       0.93850    0.93850    0.82680   1.00
O2       0.82680    0.89150    0.89150   1.00
O2       0.89150    0.82680    0.89150   1.00
O2       0.89150    0.89150    0.82680   1.00
C1       0.91500    0.91500    1.02020   1.00
C1       0.91500    1.02020    0.91500   1.00
C1       0.80980    0.91500    0.91500   1.00
C1       1.02020    0.91500    0.91500   1.00
C1       0.91500    0.80980    0.91500   1.00
C1       0.91500    0.91500    0.80980   1.00
O1       0.41500    0.41500    0.91500   1.00
Zn1      0.38220    0.44780    0.94780   1.00
Zn1      0.44780    0.38220    0.94780   1.00
Zn1      0.44780    0.44780    0.88220   1.00
Zn1      0.38220    0.38220    0.88220   1.00
O2       0.39150    0.43850    1.00320   1.00
O2       0.39150    0.50320    0.93850   1.00
O2       0.32680    0.43850    0.93850   1.00
O2       0.43850    0.39150    1.00320   1.00
O2       0.50320    0.39150    0.93850   1.00
O2       0.43850    0.32680    0.93850   1.00
O2       0.43850    0.50320    0.89150   1.00
O2       0.50320    0.43850    0.89150   1.00
O2       0.43850    0.43850    0.82680   1.00
O2       0.32680    0.39150    0.89150   1.00
O2       0.39150    0.32680    0.89150   1.00
O2       0.39150    0.39150    0.82680   1.00
C1       0.41500    0.41500    1.02020   1.00
C1       0.41500    0.52020    0.91500   1.00
C1       0.30980    0.41500    0.91500   1.00
C1       0.52020    0.41500    0.91500   1.00
C1       0.41500    0.30980    0.91500   1.00
C1       0.41500    0.41500    0.80980   1.00
O1       0.41500    0.91500    0.41500   1.00
Zn1      0.38220    0.94780    0.44780   1.00
Zn1      0.44780    0.88220    0.44780   1.00
Zn1      0.44780    0.94780    0.38220   1.00
Zn1      0.38220    0.88220    0.38220   1.00
O2       0.39150    0.93850    0.50320   1.00
O2       0.39150    1.00320    0.43850   1.00
O2       0.32680    0.93850    0.43850   1.00
O2       0.43850    0.89150    0.50320   1.00
O2       0.50320    0.89150    0.43850   1.00
O2       0.43850    0.82680    0.43850   1.00
O2       0.43850    1.00320    0.39150   1.00
O2       0.50320    0.93850    0.39150   1.00
O2       0.43850    0.93850    0.32680   1.00
O2       0.32680    0.89150    0.39150   1.00
O2       0.39150    0.82680    0.39150   1.00
O2       0.39150    0.89150    0.32680   1.00
C1       0.41500    0.91500    0.52020   1.00
C1       0.41500    1.02020    0.41500   1.00
C1       0.30980    0.91500    0.41500   1.00
C1       0.52020    0.91500    0.41500   1.00
C1       0.41500    0.80980    0.41500   1.00
C1       0.41500    0.91500    0.30980   1.00
O1       0.91500    0.41500    0.41500   1.00
Zn1      0.88220    0.44780    0.44780   1.00
Zn1      0.94780    0.38220    0.44780   1.00
Zn1      0.94780    0.44780    0.38220   1.00
Zn1      0.88220    0.38220    0.38220   1.00
O2       0.89150    0.43850    0.50320   1.00
O2       0.89150    0.50320    0.43850   1.00
O2       0.82680    0.43850    0.43850   1.00
O2       0.93850    0.39150    0.50320   1.00
O2       1.00320    0.39150    0.43850   1.00
O2       0.93850    0.32680    0.43850   1.00
O2       0.93850    0.50320    0.39150   1.00
O2       1.00320    0.43850    0.39150   1.00
O2       0.93850    0.43850    0.32680   1.00
O2       0.82680    0.39150    0.39150   1.00
O2       0.89150    0.32680    0.39150   1.00
O2       0.89150    0.39150    0.32680   1.00
C1       0.91500    0.41500    0.52020   1.00
C1       0.91500    0.52020    0.41500   1.00
C1       0.80980    0.41500    0.41500   1.00
C1       1.02020    0.41500    0.41500   1.00
C1       0.91500    0.30980    0.41500   1.00
C1       0.91500    0.41500    0.30980   1.00
O1       0.41500    0.41500    0.41500   1.00
Zn1      0.44780    0.38220    0.38220   1.00
Zn1      0.38220    0.44780    0.38220   1.00
Zn1      0.38220    0.38220    0.44780   1.00
Zn1      0.44780    0.44780    0.44780   1.00
O2       0.43850    0.39150    0.32680   1.00
O2       0.43850    0.32680    0.39150   1.00
O2       0.50320    0.39150    0.39150   1.00
O2       0.39150    0.43850    0.32680   1.00
O2       0.32680    0.43850    0.39150   1.00
O2       0.39150    0.50320    0.39150   1.00
O2       0.39150    0.32680    0.43850   1.00
O2       0.32680    0.39150    0.43850   1.00
O2       0.39150    0.39150    0.50320   1.00
O2       0.50320    0.43850    0.43850   1.00
O2       0.43850    0.50320    0.43850   1.00
O2       0.43850    0.43850    0.50320   1.00
C1       0.41500    0.41500    0.30980   1.00
C1       0.41500    0.30980    0.41500   1.00
C1       0.52020    0.41500    0.41500   1.00
C1       0.30980    0.41500    0.41500   1.00
C1       0.41500    0.52020    0.41500   1.00
C1       0.41500    0.41500    0.52020   1.00
O1       0.91500    0.91500    0.41500   1.00
Zn1      0.94780    0.88220    0.38220   1.00
Zn1      0.88220    0.94780    0.38220   1.00
Zn1      0.88220    0.88220    0.44780   1.00
Zn1      0.94780    0.94780    0.44780   1.00
O2       0.93850    0.89150    0.32680   1.00
O2       0.93850    0.82680    0.39150   1.00
O2       1.00320    0.89150    0.39150   1.00
O2       0.89150    0.93850    0.32680   1.00
O2       0.82680    0.93850    0.39150   1.00
O2       0.89150    1.00320    0.39150   1.00
O2       0.89150    0.82680    0.43850   1.00
O2       0.82680    0.89150    0.43850   1.00
O2       0.89150    0.89150    0.50320   1.00
O2       1.00320    0.93850    0.43850   1.00
O2       0.93850    1.00320    0.43850   1.00
O2       0.93850    0.93850    0.50320   1.00
C1       0.91500    0.91500    0.30980   1.00
C1       0.91500    0.80980    0.41500   1.00
C1       1.02020    0.91500    0.41500   1.00
C1       0.80980    0.91500    0.41500   1.00
C1       0.91500    1.02020    0.41500   1.00
C1       0.91500    0.91500    0.52020   1.00
O1       0.91500    0.41500    0.91500   1.00
Zn1      0.94780    0.38220    0.88220   1.00
Zn1      0.88220    0.44780    0.88220   1.00
Zn1      0.88220    0.38220    0.94780   1.00
Zn1      0.94780    0.44780    0.94780   1.00
O2       0.93850    0.39150    0.82680   1.00
O2       0.93850    0.32680    0.89150   1.00
O2       1.00320    0.39150    0.89150   1.00
O2       0.89150    0.43850    0.82680   1.00
O2       0.82680    0.43850    0.89150   1.00
O2       0.89150    0.50320    0.89150   1.00
O2       0.89150    0.32680    0.93850   1.00
O2       0.82680    0.39150    0.93850   1.00
O2       0.89150    0.39150    1.00320   1.00
O2       1.00320    0.43850    0.93850   1.00
O2       0.93850    0.50320    0.93850   1.00
O2       0.93850    0.43850    1.00320   1.00
C1       0.91500    0.41500    0.80980   1.00
C1       0.91500    0.30980    0.91500   1.00
C1       1.02020    0.41500    0.91500   1.00
C1       0.80980    0.41500    0.91500   1.00
C1       0.91500    0.52020    0.91500   1.00
C1       0.91500    0.41500    1.02020   1.00
O1       0.41500    0.91500    0.91500   1.00
Zn1      0.44780    0.88220    0.88220   1.00
Zn1      0.38220    0.94780    0.88220   1.00
Zn1      0.38220    0.88220    0.94780   1.00
Zn1      0.44780    0.94780    0.94780   1.00
O2       0.43850    0.89150    0.82680   1.00
O2       0.43850    0.82680    0.89150   1.00
O2       0.50320    0.89150    0.89150   1.00
O2       0.39150    0.93850    0.82680   1.00
O2       0.32680    0.93850    0.89150   1.00
O2       0.39150    1.00320    0.89150   1.00
O2       0.39150    0.82680    0.93850   1.00
O2       0.32680    0.89150    0.93850   1.00
O2       0.39150    0.89150    1.00320   1.00
O2       0.50320    0.93850    0.93850   1.00
O2       0.43850    1.00320    0.93850   1.00
O2       0.43850    0.93850    1.00320   1.00
C1       0.41500    0.91500    0.80980   1.00
C1       0.41500    0.80980    0.91500   1.00
C1       0.52020    0.91500    0.91500   1.00
C1       0.30980    0.91500    0.91500   1.00
C1       0.41500    1.02020    0.91500   1.00
C1       0.41500    0.91500    1.02020   1.00
C4       0.75016    0.75035    0.97915   1.00
C4       0.74984    0.74965    1.02085   1.00
C3       0.78530    0.74850    0.95751   1.00
C3       0.77521    0.72535    1.04252   1.00
C3       0.71509    0.75207    0.95738   1.00
C3       0.72458    0.77404    1.04259   1.00
C2       0.75015    0.74993    0.89482   1.00
C2       0.75015    0.74993    1.10518   1.00
C3a      0.78545    0.74830    0.91599   1.00
C3       0.77529    0.72553    1.08382   1.00
C3       0.71516    0.75186    0.91611   1.00
C3a      0.72457    0.77431    1.08403   1.00
H1       0.81283    0.74752    0.97294   1.00
H1       0.79492    0.70575    1.02750   1.00
C5       0.82346    0.74650    0.89410   1.00
H1       0.79513    0.70645    1.09933   1.00
H1       0.68768    0.75291    0.90056   1.00
C5       0.69690    0.80095    1.10535   1.00
H1       0.70536    0.79402    1.02747   1.00
H1       0.68726    0.75280    0.97230   1.00
H2       0.66651    0.79203    1.09837   1.00
H2       0.70052    0.79825    1.13747   1.00
N1       0.70343    0.84156    1.09395   1.00
C6       0.69830    0.85679    1.05810   1.00
C6       0.71530    0.87064    1.11757   1.00
C6       0.70718    0.89604    1.05873   1.00
C6       0.71800    0.90484    1.09656   1.00
H3       0.68865    0.84048    1.03281   1.00
H3       0.72179    0.86724    1.14831   1.00
H3       0.70586    0.91603    1.03436   1.00
H3       0.72683    0.93304    1.10758   1.00
H2       0.81724    0.74604    0.86228   1.00
H2       0.84163    0.77268    0.90001   1.00
N1       0.84531    0.71168    0.90523   1.00
C6       0.85685    0.68031    0.88078   1.00
C6       0.85978    0.70210    0.94285   1.00
C6       0.87713    0.65332    0.90277   1.00
C6       0.87891    0.66670    0.94091   1.00
H3       0.85053    0.67811    0.84992   1.00
H3       0.85589    0.71975    0.96876   1.00
H3       0.88944    0.62633    0.89205   1.00
H3       0.89281    0.65191    0.96505   1.00
C4       0.75035    0.97915    0.75016   1.00
C4       0.74965    1.02085    0.74984   1.00
C3       0.74850    0.95751    0.78530   1.00
C3       0.72535    1.04252    0.77521   1.00
C3       0.75207    0.95738    0.71509   1.00
C3       0.77404    1.04259    0.72458   1.00
C2       0.74993    0.89482    0.75015   1.00
C2       0.74993    1.10518    0.75015   1.00
C3a      0.74830    0.91599    0.78545   1.00
C3       0.72553    1.08382    0.77529   1.00
C3       0.75186    0.91611    0.71516   1.00
C3a      0.77431    1.08403    0.72457   1.00
H1       0.74752    0.97294    0.81283   1.00
H1       0.70575    1.02750    0.79492   1.00
C5       0.74650    0.89410    0.82346   1.00
H1       0.70645    1.09933    0.79513   1.00
H1       0.75291    0.90056    0.68768   1.00
C5       0.80095    1.10535    0.69690   1.00
H1       0.79402    1.02747    0.70536   1.00
H1       0.75280    0.97230    0.68726   1.00
H2       0.79203    1.09837    0.66651   1.00
H2       0.79825    1.13747    0.70052   1.00
N1       0.84156    1.09395    0.70343   1.00
C6       0.85679    1.05810    0.69830   1.00
C6       0.87064    1.11757    0.71530   1.00
C6       0.89604    1.05873    0.70718   1.00
C6       0.90484    1.09656    0.71800   1.00
H3       0.84048    1.03281    0.68865   1.00
H3       0.86724    1.14831    0.72179   1.00
H3       0.91603    1.03436    0.70586   1.00
H3       0.93304    1.10758    0.72683   1.00
H2       0.74604    0.86228    0.81724   1.00
H2       0.77268    0.90001    0.84163   1.00
N1       0.71168    0.90523    0.84531   1.00
C6       0.68031    0.88078    0.85685   1.00
C6       0.70210    0.94285    0.85978   1.00
C6       0.65332    0.90277    0.87713   1.00
C6       0.66670    0.94091    0.87891   1.00
H3       0.67811    0.84992    0.85053   1.00
H3       0.71975    0.96876    0.85589   1.00
H3       0.62633    0.89205    0.88944   1.00
H3       0.65191    0.96505    0.89281   1.00
C4       0.52085    0.75016    0.74965   1.00
C4       0.47915    0.74984    0.75035   1.00
C3       0.54249    0.78530    0.75150   1.00
C3       0.45748    0.77521    0.77465   1.00
C3       0.54262    0.71509    0.74793   1.00
C3       0.45741    0.72458    0.72596   1.00
C2       0.60518    0.75015    0.75007   1.00
C2       0.39482    0.75015    0.75007   1.00
C3a      0.58401    0.78545    0.75170   1.00
C3       0.41618    0.77529    0.77447   1.00
C3       0.58389    0.71516    0.74814   1.00
C3a      0.41597    0.72457    0.72569   1.00
H1       0.52706    0.81283    0.75248   1.00
H1       0.47250    0.79492    0.79425   1.00
C5       0.60590    0.82346    0.75350   1.00
H1       0.40067    0.79513    0.79355   1.00
H1       0.59944    0.68768    0.74709   1.00
C5       0.39465    0.69690    0.69905   1.00
H1       0.47253    0.70536    0.70598   1.00
H1       0.52770    0.68726    0.74720   1.00
H2       0.40163    0.66651    0.70797   1.00
H2       0.36253    0.70052    0.70175   1.00
N1       0.40605    0.70343    0.65844   1.00
C6       0.44190    0.69830    0.64321   1.00
C6       0.38243    0.71530    0.62936   1.00
C6       0.44127    0.70718    0.60396   1.00
C6       0.40344    0.71800    0.59516   1.00
H3       0.46719    0.68865    0.65952   1.00
H3       0.35169    0.72179    0.63276   1.00
H3       0.46564    0.70586    0.58397   1.00
H3       0.39242    0.72683    0.56696   1.00
H2       0.63772    0.81724    0.75396   1.00
H2       0.59999    0.84163    0.72732   1.00
N1       0.59477    0.84531    0.78832   1.00
C6       0.61922    0.85685    0.81969   1.00
C6       0.55715    0.85978    0.79790   1.00
C6       0.59723    0.87713    0.84668   1.00
C6       0.55909    0.87891    0.83330   1.00
H3       0.65008    0.85053    0.82189   1.00
H3       0.53124    0.85589    0.78025   1.00
H3       0.60795    0.88944    0.87367   1.00
H3       0.53495    0.89281    0.84809   1.00
C4       0.97915    0.75016    0.75035   1.00
C4       1.02085    0.74984    0.74965   1.00
C3       0.95751    0.78530    0.74850   1.00
C3       1.04252    0.77521    0.72535   1.00
C3       0.95738    0.71509    0.75207   1.00
C3       1.04259    0.72458    0.77404   1.00
C2       0.89482    0.75015    0.74993   1.00
C2       1.10518    0.75015    0.74993   1.00
C3a      0.91599    0.78545    0.74830   1.00
C3       1.08382    0.77529    0.72553   1.00
C3       0.91611    0.71516    0.75186   1.00
C3a      1.08403    0.72457    0.77431   1.00
H1       0.97294    0.81283    0.74752   1.00
H1       1.02750    0.79492    0.70575   1.00
C5       0.89410    0.82346    0.74650   1.00
H1       1.09933    0.79513    0.70645   1.00
H1       0.90056    0.68768    0.75291   1.00
C5       1.10535    0.69690    0.80095   1.00
H1       1.02747    0.70536    0.79402   1.00
H1       0.97230    0.68726    0.75280   1.00
H2       1.09837    0.66651    0.79203   1.00
H2       1.13747    0.70052    0.79825   1.00
N1       1.09395    0.70343    0.84156   1.00
C6       1.05810    0.69830    0.85679   1.00
C6       1.11757    0.71530    0.87064   1.00
C6       1.05873    0.70718    0.89604   1.00
C6       1.09656    0.71800    0.90484   1.00
H3       1.03281    0.68865    0.84048   1.00
H3       1.14831    0.72179    0.86724   1.00
H3       1.03436    0.70586    0.91603   1.00
H3       1.10758    0.72683    0.93304   1.00
H2       0.86228    0.81724    0.74604   1.00
H2       0.90001    0.84163    0.77268   1.00
N1       0.90523    0.84531    0.71168   1.00
C6       0.88078    0.85685    0.68031   1.00
C6       0.94285    0.85978    0.70210   1.00
C6       0.90277    0.87713    0.65332   1.00
C6       0.94091    0.87891    0.66670   1.00
H3       0.84992    0.85053    0.67811   1.00
H3       0.96876    0.85589    0.71975   1.00
H3       0.89205    0.88944    0.62633   1.00
H3       0.96505    0.89281    0.65191   1.00
C4       0.74965    0.52085    0.75016   1.00
C4       0.75035    0.47915    0.74984   1.00
C3       0.75150    0.54249    0.78530   1.00
C3       0.77465    0.45748    0.77521   1.00
C3       0.74793    0.54262    0.71509   1.00
C3       0.72596    0.45741    0.72458   1.00
C2       0.75007    0.60518    0.75015   1.00
C2       0.75007    0.39482    0.75015   1.00
C3a      0.75170    0.58401    0.78545   1.00
C3       0.77447    0.41618    0.77529   1.00
C3       0.74814    0.58389    0.71516   1.00
C3a      0.72569    0.41597    0.72457   1.00
H1       0.75248    0.52706    0.81283   1.00
H1       0.79425    0.47250    0.79492   1.00
C5       0.75350    0.60590    0.82346   1.00
H1       0.79355    0.40067    0.79513   1.00
H1       0.74709    0.59944    0.68768   1.00
C5       0.69905    0.39465    0.69690   1.00
H1       0.70598    0.47253    0.70536   1.00
H1       0.74720    0.52770    0.68726   1.00
H2       0.70797    0.40163    0.66651   1.00
H2       0.70175    0.36253    0.70052   1.00
N1       0.65844    0.40605    0.70343   1.00
C6       0.64321    0.44190    0.69830   1.00
C6       0.62936    0.38243    0.71530   1.00
C6       0.60396    0.44127    0.70718   1.00
C6       0.59516    0.40344    0.71800   1.00
H3       0.65952    0.46719    0.68865   1.00
H3       0.63276    0.35169    0.72179   1.00
H3       0.58397    0.46564    0.70586   1.00
H3       0.56696    0.39242    0.72683   1.00
H2       0.75396    0.63772    0.81724   1.00
H2       0.72732    0.59999    0.84163   1.00
N1       0.78832    0.59477    0.84531   1.00
C6       0.81969    0.61922    0.85685   1.00
C6       0.79790    0.55715    0.85978   1.00
C6       0.84668    0.59723    0.87713   1.00
C6       0.83330    0.55909    0.87891   1.00
H3       0.82189    0.65008    0.85053   1.00
H3       0.78025    0.53124    0.85589   1.00
H3       0.87367    0.60795    0.88944   1.00
H3       0.84809    0.53495    0.89281   1.00
C4       0.75016    0.74965    0.52085   1.00
C4       0.74984    0.75035    0.47915   1.00
C3       0.78530    0.75150    0.54249   1.00
C3       0.77521    0.77465    0.45748   1.00
C3       0.71509    0.74793    0.54262   1.00
C3       0.72458    0.72596    0.45741   1.00
C2       0.75015    0.75007    0.60518   1.00
C2       0.75015    0.75007    0.39482   1.00
C3a      0.78545    0.75170    0.58401   1.00
C3       0.77529    0.77447    0.41618   1.00
C3       0.71516    0.74814    0.58389   1.00
C3a      0.72457    0.72569    0.41597   1.00
H1       0.81283    0.75248    0.52706   1.00
H1       0.79492    0.79425    0.47250   1.00
C5       0.82346    0.75350    0.60590   1.00
H1       0.79513    0.79355    0.40067   1.00
H1       0.68768    0.74709    0.59944   1.00
C5       0.69690    0.69905    0.39465   1.00
H1       0.70536    0.70598    0.47253   1.00
H1       0.68726    0.74720    0.52770   1.00
H2       0.66651    0.70797    0.40163   1.00
H2       0.70052    0.70175    0.36253   1.00
N1       0.70343    0.65844    0.40605   1.00
C6       0.69830    0.64321    0.44190   1.00
C6       0.71530    0.62936    0.38243   1.00
C6       0.70718    0.60396    0.44127   1.00
C6       0.71800    0.59516    0.40344   1.00
H3       0.68865    0.65952    0.46719   1.00
H3       0.72179    0.63276    0.35169   1.00
H3       0.70586    0.58397    0.46564   1.00
H3       0.72683    0.56696    0.39242   1.00
H2       0.81724    0.75396    0.63772   1.00
H2       0.84163    0.72732    0.59999   1.00
N1       0.84531    0.78832    0.59477   1.00
C6       0.85685    0.81969    0.61922   1.00
C6       0.85978    0.79790    0.55715   1.00
C6       0.87713    0.84668    0.59723   1.00
C6       0.87891    0.83330    0.55909   1.00
H3       0.85053    0.82189    0.65008   1.00
H3       0.85589    0.78025    0.53124   1.00
H3       0.88944    0.87367    0.60795   1.00
H3       0.89281    0.84809    0.53495   1.00
C4       0.25016    0.25035    0.97915   1.00
C4       0.24984    0.24965    1.02085   1.00
C3       0.28530    0.24850    0.95751   1.00
C3       0.27521    0.22535    1.04252   1.00
C3       0.21509    0.25207    0.95738   1.00
C3       0.22458    0.27404    1.04259   1.00
C2       0.25015    0.24993    0.89482   1.00
C2       0.25015    0.24993    1.10518   1.00
C3a      0.28545    0.24830    0.91599   1.00
C3       0.27529    0.22553    1.08382   1.00
C3       0.21516    0.25186    0.91611   1.00
C3a      0.22457    0.27431    1.08403   1.00
H1       0.31283    0.24752    0.97294   1.00
H1       0.29492    0.20575    1.02750   1.00
C5       0.32346    0.24650    0.89410   1.00
H1       0.29513    0.20645    1.09933   1.00
H1       0.18768    0.25291    0.90056   1.00
C5       0.19690    0.30095    1.10535   1.00
H1       0.20536    0.29402    1.02747   1.00
H1       0.18726    0.25280    0.97230   1.00
H2       0.16651    0.29203    1.09837   1.00
H2       0.20052    0.29825    1.13747   1.00
N1       0.20343    0.34156    1.09395   1.00
C6       0.19830    0.35679    1.05810   1.00
C6       0.21530    0.37064    1.11757   1.00
C6       0.20718    0.39604    1.05873   1.00
C6       0.21800    0.40484    1.09656   1.00
H3       0.18865    0.34048    1.03281   1.00
H3       0.22179    0.36724    1.14831   1.00
H3       0.20586    0.41603    1.03436   1.00
H3       0.22683    0.43304    1.10758   1.00
H2       0.31724    0.24604    0.86228   1.00
H2       0.34163    0.27268    0.90001   1.00
N1       0.34531    0.21168    0.90523   1.00
C6       0.35685    0.18031    0.88078   1.00
C6       0.35978    0.20210    0.94285   1.00
C6       0.37713    0.15332    0.90277   1.00
C6       0.37891    0.16670    0.94091   1.00
H3       0.35053    0.17811    0.84992   1.00
H3       0.35589    0.21975    0.96876   1.00
H3       0.38944    0.12633    0.89205   1.00
H3       0.39281    0.15191    0.96505   1.00
C4       0.25035    0.47915    0.75016   1.00
C4       0.24965    0.52085    0.74984   1.00
C3       0.24850    0.45751    0.78530   1.00
C3       0.22535    0.54252    0.77521   1.00
C3       0.25207    0.45738    0.71509   1.00
C3       0.27404    0.54259    0.72458   1.00
C2       0.24993    0.39482    0.75015   1.00
C2       0.24993    0.60518    0.75015   1.00
C3a      0.24830    0.41599    0.78545   1.00
C3       0.22553    0.58382    0.77529   1.00
C3       0.25186    0.41611    0.71516   1.00
C3a      0.27431    0.58403    0.72457   1.00
H1       0.24752    0.47294    0.81283   1.00
H1       0.20575    0.52750    0.79492   1.00
C5       0.24650    0.39410    0.82346   1.00
H1       0.20645    0.59933    0.79513   1.00
H1       0.25291    0.40056    0.68768   1.00
C5       0.30095    0.60535    0.69690   1.00
H1       0.29402    0.52747    0.70536   1.00
H1       0.25280    0.47230    0.68726   1.00
H2       0.29203    0.59837    0.66651   1.00
H2       0.29825    0.63747    0.70052   1.00
N1       0.34156    0.59395    0.70343   1.00
C6       0.35679    0.55810    0.69830   1.00
C6       0.37064    0.61757    0.71530   1.00
C6       0.39604    0.55873    0.70718   1.00
C6       0.40484    0.59656    0.71800   1.00
H3       0.34048    0.53281    0.68865   1.00
H3       0.36724    0.64831    0.72179   1.00
H3       0.41603    0.53436    0.70586   1.00
H3       0.43304    0.60758    0.72683   1.00
H2       0.24604    0.36228    0.81724   1.00
H2       0.27268    0.40001    0.84163   1.00
N1       0.21168    0.40523    0.84531   1.00
C6       0.18031    0.38078    0.85685   1.00
C6       0.20210    0.44285    0.85978   1.00
C6       0.15332    0.40277    0.87713   1.00
C6       0.16670    0.44091    0.87891   1.00
H3       0.17811    0.34992    0.85053   1.00
H3       0.21975    0.46876    0.85589   1.00
H3       0.12633    0.39205    0.88944   1.00
H3       0.15191    0.46505    0.89281   1.00
C4       0.02085    0.25016    0.74965   1.00
C4       -0.02085   0.24984    0.75035   1.00
C3       0.04249    0.28530    0.75150   1.00
C3       -0.04252   0.27521    0.77465   1.00
C3       0.04262    0.21509    0.74793   1.00
C3       -0.04259   0.22458    0.72596   1.00
C2       0.10518    0.25015    0.75007   1.00
C2       -0.10518   0.25015    0.75007   1.00
C3a      0.08401    0.28545    0.75170   1.00
C3       -0.08382   0.27529    0.77447   1.00
C3       0.08389    0.21516    0.74814   1.00
C3a      -0.08403   0.22457    0.72569   1.00
H1       0.02706    0.31283    0.75248   1.00
H1       -0.02750   0.29492    0.79425   1.00
C5       0.10590    0.32346    0.75350   1.00
H1       -0.09933   0.29513    0.79355   1.00
H1       0.09944    0.18768    0.74709   1.00
C5       -0.10535   0.19690    0.69905   1.00
H1       -0.02747   0.20536    0.70598   1.00
H1       0.02770    0.18726    0.74720   1.00
H2       -0.09837   0.16651    0.70797   1.00
H2       -0.13747   0.20052    0.70175   1.00
N1       -0.09395   0.20343    0.65844   1.00
C6       -0.05810   0.19830    0.64321   1.00
C6       -0.11757   0.21530    0.62936   1.00
C6       -0.05873   0.20718    0.60396   1.00
C6       -0.09656   0.21800    0.59516   1.00
H3       -0.03281   0.18865    0.65952   1.00
H3       -0.14831   0.22179    0.63276   1.00
H3       -0.03436   0.20586    0.58397   1.00
H3       -0.10758   0.22683    0.56696   1.00
H2       0.13772    0.31724    0.75396   1.00
H2       0.09999    0.34163    0.72732   1.00
N1       0.09477    0.34531    0.78832   1.00
C6       0.11922    0.35685    0.81969   1.00
C6       0.05715    0.35978    0.79790   1.00
C6       0.09723    0.37713    0.84668   1.00
C6       0.05909    0.37891    0.83330   1.00
H3       0.15008    0.35053    0.82189   1.00
H3       0.03124    0.35589    0.78025   1.00
H3       0.10795    0.38944    0.87367   1.00
H3       0.03495    0.39281    0.84809   1.00
C4       0.47915    0.25016    0.75035   1.00
C4       0.52085    0.24984    0.74965   1.00
C3       0.45751    0.28530    0.74850   1.00
C3       0.54252    0.27521    0.72535   1.00
C3       0.45738    0.21509    0.75207   1.00
C3       0.54259    0.22458    0.77404   1.00
C2       0.39482    0.25015    0.74993   1.00
C2       0.60518    0.25015    0.74993   1.00
C3a      0.41599    0.28545    0.74830   1.00
C3       0.58382    0.27529    0.72553   1.00
C3       0.41611    0.21516    0.75186   1.00
C3a      0.58403    0.22457    0.77431   1.00
H1       0.47294    0.31283    0.74752   1.00
H1       0.52750    0.29492    0.70575   1.00
C5       0.39410    0.32346    0.74650   1.00
H1       0.59933    0.29513    0.70645   1.00
H1       0.40056    0.18768    0.75291   1.00
C5       0.60535    0.19690    0.80095   1.00
H1       0.52747    0.20536    0.79402   1.00
H1       0.47230    0.18726    0.75280   1.00
H2       0.59837    0.16651    0.79203   1.00
H2       0.63747    0.20052    0.79825   1.00
N1       0.59395    0.20343    0.84156   1.00
C6       0.55810    0.19830    0.85679   1.00
C6       0.61757    0.21530    0.87064   1.00
C6       0.55873    0.20718    0.89604   1.00
C6       0.59656    0.21800    0.90484   1.00
H3       0.53281    0.18865    0.84048   1.00
H3       0.64831    0.22179    0.86724   1.00
H3       0.53436    0.20586    0.91603   1.00
H3       0.60758    0.22683    0.93304   1.00
H2       0.36228    0.31724    0.74604   1.00
H2       0.40001    0.34163    0.77268   1.00
N1       0.40523    0.34531    0.71168   1.00
C6       0.38078    0.35685    0.68031   1.00
C6       0.44285    0.35978    0.70210   1.00
C6       0.40277    0.37713    0.65332   1.00
C6       0.44091    0.37891    0.66670   1.00
H3       0.34992    0.35053    0.67811   1.00
H3       0.46876    0.35589    0.71975   1.00
H3       0.39205    0.38944    0.62633   1.00
H3       0.46505    0.39281    0.65191   1.00
C4       0.24965    0.02085    0.75016   1.00
C4       0.25035    -0.02085   0.74984   1.00
C3       0.25150    0.04249    0.78530   1.00
C3       0.27465    -0.04252   0.77521   1.00
C3       0.24793    0.04262    0.71509   1.00
C3       0.22596    -0.04259   0.72458   1.00
C2       0.25007    0.10518    0.75015   1.00
C2       0.25007    -0.10518   0.75015   1.00
C3a      0.25170    0.08401    0.78545   1.00
C3       0.27447    -0.08382   0.77529   1.00
C3       0.24814    0.08389    0.71516   1.00
C3a      0.22569    -0.08403   0.72457   1.00
H1       0.25248    0.02706    0.81283   1.00
H1       0.29425    -0.02750   0.79492   1.00
C5       0.25350    0.10590    0.82346   1.00
H1       0.29355    -0.09933   0.79513   1.00
H1       0.24709    0.09944    0.68768   1.00
C5       0.19905    -0.10535   0.69690   1.00
H1       0.20598    -0.02747   0.70536   1.00
H1       0.24720    0.02770    0.68726   1.00
H2       0.20797    -0.09837   0.66651   1.00
H2       0.20175    -0.13747   0.70052   1.00
N1       0.15844    -0.09395   0.70343   1.00
C6       0.14321    -0.05810   0.69830   1.00
C6       0.12936    -0.11757   0.71530   1.00
C6       0.10396    -0.05873   0.70718   1.00
C6       0.09516    -0.09656   0.71800   1.00
H3       0.15952    -0.03281   0.68865   1.00
H3       0.13276    -0.14831   0.72179   1.00
H3       0.08397    -0.03436   0.70586   1.00
H3       0.06696    -0.10758   0.72683   1.00
H2       0.25396    0.13772    0.81724   1.00
H2       0.22732    0.09999    0.84163   1.00
N1       0.28832    0.09477    0.84531   1.00
C6       0.31969    0.11922    0.85685   1.00
C6       0.29790    0.05715    0.85978   1.00
C6       0.34668    0.09723    0.87713   1.00
C6       0.33330    0.05909    0.87891   1.00
H3       0.32189    0.15008    0.85053   1.00
H3       0.28025    0.03124    0.85589   1.00
H3       0.37367    0.10795    0.88944   1.00
H3       0.34809    0.03495    0.89281   1.00
C4       0.25016    0.24965    0.52085   1.00
C4       0.24984    0.25035    0.47915   1.00
C3       0.28530    0.25150    0.54249   1.00
C3       0.27521    0.27465    0.45748   1.00
C3       0.21509    0.24793    0.54262   1.00
C3       0.22458    0.22596    0.45741   1.00
C2       0.25015    0.25007    0.60518   1.00
C2       0.25015    0.25007    0.39482   1.00
C3a      0.28545    0.25170    0.58401   1.00
C3       0.27529    0.27447    0.41618   1.00
C3       0.21516    0.24814    0.58389   1.00
C3a      0.22457    0.22569    0.41597   1.00
H1       0.31283    0.25248    0.52706   1.00
H1       0.29492    0.29425    0.47250   1.00
C5       0.32346    0.25350    0.60590   1.00
H1       0.29513    0.29355    0.40067   1.00
H1       0.18768    0.24709    0.59944   1.00
C5       0.19690    0.19905    0.39465   1.00
H1       0.20536    0.20598    0.47253   1.00
H1       0.18726    0.24720    0.52770   1.00
H2       0.16651    0.20797    0.40163   1.00
H2       0.20052    0.20175    0.36253   1.00
N1       0.20343    0.15844    0.40605   1.00
C6       0.19830    0.14321    0.44190   1.00
C6       0.21530    0.12936    0.38243   1.00
C6       0.20718    0.10396    0.44127   1.00
C6       0.21800    0.09516    0.40344   1.00
H3       0.18865    0.15952    0.46719   1.00
H3       0.22179    0.13276    0.35169   1.00
H3       0.20586    0.08397    0.46564   1.00
H3       0.22683    0.06696    0.39242   1.00
H2       0.31724    0.25396    0.63772   1.00
H2       0.34163    0.22732    0.59999   1.00
N1       0.34531    0.28832    0.59477   1.00
C6       0.35685    0.31969    0.61922   1.00
C6       0.35978    0.29790    0.55715   1.00
C6       0.37713    0.34668    0.59723   1.00
C6       0.37891    0.33330    0.55909   1.00
H3       0.35053    0.32189    0.65008   1.00
H3       0.35589    0.28025    0.53124   1.00
H3       0.38944    0.37367    0.60795   1.00
H3       0.39281    0.34809    0.53495   1.00
C4       0.25016    0.75035    0.47915   1.00
C4       0.24984    0.74965    0.52085   1.00
C3       0.28530    0.74850    0.45751   1.00
C3       0.27521    0.72535    0.54252   1.00
C3       0.21509    0.75207    0.45738   1.00
C3       0.22458    0.77404    0.54259   1.00
C2       0.25015    0.74993    0.39482   1.00
C2       0.25015    0.74993    0.60518   1.00
C3a      0.28545    0.74830    0.41599   1.00
C3       0.27529    0.72553    0.58382   1.00
C3       0.21516    0.75186    0.41611   1.00
C3a      0.22457    0.77431    0.58403   1.00
H1       0.31283    0.74752    0.47294   1.00
H1       0.29492    0.70575    0.52750   1.00
C5       0.32346    0.74650    0.39410   1.00
H1       0.29513    0.70645    0.59933   1.00
H1       0.18768    0.75291    0.40056   1.00
C5       0.19690    0.80095    0.60535   1.00
H1       0.20536    0.79402    0.52747   1.00
H1       0.18726    0.75280    0.47230   1.00
H2       0.16651    0.79203    0.59837   1.00
H2       0.20052    0.79825    0.63747   1.00
N1       0.20343    0.84156    0.59395   1.00
C6       0.19830    0.85679    0.55810   1.00
C6       0.21530    0.87064    0.61757   1.00
C6       0.20718    0.89604    0.55873   1.00
C6       0.21800    0.90484    0.59656   1.00
H3       0.18865    0.84048    0.53281   1.00
H3       0.22179    0.86724    0.64831   1.00
H3       0.20586    0.91603    0.53436   1.00
H3       0.22683    0.93304    0.60758   1.00
H2       0.31724    0.74604    0.36228   1.00
H2       0.34163    0.77268    0.40001   1.00
N1       0.34531    0.71168    0.40523   1.00
C6       0.35685    0.68031    0.38078   1.00
C6       0.35978    0.70210    0.44285   1.00
C6       0.37713    0.65332    0.40277   1.00
C6       0.37891    0.66670    0.44091   1.00
H3       0.35053    0.67811    0.34992   1.00
H3       0.35589    0.71975    0.46876   1.00
H3       0.38944    0.62633    0.39205   1.00
H3       0.39281    0.65191    0.46505   1.00
C4       0.25035    0.97915    0.25016   1.00
C4       0.24965    1.02085    0.24984   1.00
C3       0.24850    0.95751    0.28530   1.00
C3       0.22535    1.04252    0.27521   1.00
C3       0.25207    0.95738    0.21509   1.00
C3       0.27404    1.04259    0.22458   1.00
C2       0.24993    0.89482    0.25015   1.00
C2       0.24993    1.10518    0.25015   1.00
C3a      0.24830    0.91599    0.28545   1.00
C3       0.22553    1.08382    0.27529   1.00
C3       0.25186    0.91611    0.21516   1.00
C3a      0.27431    1.08403    0.22457   1.00
H1       0.24752    0.97294    0.31283   1.00
H1       0.20575    1.02750    0.29492   1.00
C5       0.24650    0.89410    0.32346   1.00
H1       0.20645    1.09933    0.29513   1.00
H1       0.25291    0.90056    0.18768   1.00
C5       0.30095    1.10535    0.19690   1.00
H1       0.29402    1.02747    0.20536   1.00
H1       0.25280    0.97230    0.18726   1.00
H2       0.29203    1.09837    0.16651   1.00
H2       0.29825    1.13747    0.20052   1.00
N1       0.34156    1.09395    0.20343   1.00
C6       0.35679    1.05810    0.19830   1.00
C6       0.37064    1.11757    0.21530   1.00
C6       0.39604    1.05873    0.20718   1.00
C6       0.40484    1.09656    0.21800   1.00
H3       0.34048    1.03281    0.18865   1.00
H3       0.36724    1.14831    0.22179   1.00
H3       0.41603    1.03436    0.20586   1.00
H3       0.43304    1.10758    0.22683   1.00
H2       0.24604    0.86228    0.31724   1.00
H2       0.27268    0.90001    0.34163   1.00
N1       0.21168    0.90523    0.34531   1.00
C6       0.18031    0.88078    0.35685   1.00
C6       0.20210    0.94285    0.35978   1.00
C6       0.15332    0.90277    0.37713   1.00
C6       0.16670    0.94091    0.37891   1.00
H3       0.17811    0.84992    0.35053   1.00
H3       0.21975    0.96876    0.35589   1.00
H3       0.12633    0.89205    0.38944   1.00
H3       0.15191    0.96505    0.39281   1.00
C4       0.02085    0.75016    0.24965   1.00
C4       -0.02085   0.74984    0.25035   1.00
C3       0.04249    0.78530    0.25150   1.00
C3       -0.04252   0.77521    0.27465   1.00
C3       0.04262    0.71509    0.24793   1.00
C3       -0.04259   0.72458    0.22596   1.00
C2       0.10518    0.75015    0.25007   1.00
C2       -0.10518   0.75015    0.25007   1.00
C3a      0.08401    0.78545    0.25170   1.00
C3       -0.08382   0.77529    0.27447   1.00
C3       0.08389    0.71516    0.24814   1.00
C3a      -0.08403   0.72457    0.22569   1.00
H1       0.02706    0.81283    0.25248   1.00
H1       -0.02750   0.79492    0.29425   1.00
C5       0.10590    0.82346    0.25350   1.00
H1       -0.09933   0.79513    0.29355   1.00
H1       0.09944    0.68768    0.24709   1.00
C5       -0.10535   0.69690    0.19905   1.00
H1       -0.02747   0.70536    0.20598   1.00
H1       0.02770    0.68726    0.24720   1.00
H2       -0.09837   0.66651    0.20797   1.00
H2       -0.13747   0.70052    0.20175   1.00
N1       -0.09395   0.70343    0.15844   1.00
C6       -0.05810   0.69830    0.14321   1.00
C6       -0.11757   0.71530    0.12936   1.00
C6       -0.05873   0.70718    0.10396   1.00
C6       -0.09656   0.71800    0.09516   1.00
H3       -0.03281   0.68865    0.15952   1.00
H3       -0.14831   0.72179    0.13276   1.00
H3       -0.03436   0.70586    0.08397   1.00
H3       -0.10758   0.72683    0.06696   1.00
H2       0.13772    0.81724    0.25396   1.00
H2       0.09999    0.84163    0.22732   1.00
N1       0.09477    0.84531    0.28832   1.00
C6       0.11922    0.85685    0.31969   1.00
C6       0.05715    0.85978    0.29790   1.00
C6       0.09723    0.87713    0.34668   1.00
C6       0.05909    0.87891    0.33330   1.00
H3       0.15008    0.85053    0.32189   1.00
H3       0.03124    0.85589    0.28025   1.00
H3       0.10795    0.88944    0.37367   1.00
H3       0.03495    0.89281    0.34809   1.00
C4       0.47915    0.75016    0.25035   1.00
C4       0.52085    0.74984    0.24965   1.00
C3       0.45751    0.78530    0.24850   1.00
C3       0.54252    0.77521    0.22535   1.00
C3       0.45738    0.71509    0.25207   1.00
C3       0.54259    0.72458    0.27404   1.00
C2       0.39482    0.75015    0.24993   1.00
C2       0.60518    0.75015    0.24993   1.00
C3a      0.41599    0.78545    0.24830   1.00
C3       0.58382    0.77529    0.22553   1.00
C3       0.41611    0.71516    0.25186   1.00
C3a      0.58403    0.72457    0.27431   1.00
H1       0.47294    0.81283    0.24752   1.00
H1       0.52750    0.79492    0.20575   1.00
C5       0.39410    0.82346    0.24650   1.00
H1       0.59933    0.79513    0.20645   1.00
H1       0.40056    0.68768    0.25291   1.00
C5       0.60535    0.69690    0.30095   1.00
H1       0.52747    0.70536    0.29402   1.00
H1       0.47230    0.68726    0.25280   1.00
H2       0.59837    0.66651    0.29203   1.00
H2       0.63747    0.70052    0.29825   1.00
N1       0.59395    0.70343    0.34156   1.00
C6       0.55810    0.69830    0.35679   1.00
C6       0.61757    0.71530    0.37064   1.00
C6       0.55873    0.70718    0.39604   1.00
C6       0.59656    0.71800    0.40484   1.00
H3       0.53281    0.68865    0.34048   1.00
H3       0.64831    0.72179    0.36724   1.00
H3       0.53436    0.70586    0.41603   1.00
H3       0.60758    0.72683    0.43304   1.00
H2       0.36228    0.81724    0.24604   1.00
H2       0.40001    0.84163    0.27268   1.00
N1       0.40523    0.84531    0.21168   1.00
C6       0.38078    0.85685    0.18031   1.00
C6       0.44285    0.85978    0.20210   1.00
C6       0.40277    0.87713    0.15332   1.00
C6       0.44091    0.87891    0.16670   1.00
H3       0.34992    0.85053    0.17811   1.00
H3       0.46876    0.85589    0.21975   1.00
H3       0.39205    0.88944    0.12633   1.00
H3       0.46505    0.89281    0.15191   1.00
C4       0.24965    0.52085    0.25016   1.00
C4       0.25035    0.47915    0.24984   1.00
C3       0.25150    0.54249    0.28530   1.00
C3       0.27465    0.45748    0.27521   1.00
C3       0.24793    0.54262    0.21509   1.00
C3       0.22596    0.45741    0.22458   1.00
C2       0.25007    0.60518    0.25015   1.00
C2       0.25007    0.39482    0.25015   1.00
C3a      0.25170    0.58401    0.28545   1.00
C3       0.27447    0.41618    0.27529   1.00
C3       0.24814    0.58389    0.21516   1.00
C3a      0.22569    0.41597    0.22457   1.00
H1       0.25248    0.52706    0.31283   1.00
H1       0.29425    0.47250    0.29492   1.00
C5       0.25350    0.60590    0.32346   1.00
H1       0.29355    0.40067    0.29513   1.00
H1       0.24709    0.59944    0.18768   1.00
C5       0.19905    0.39465    0.19690   1.00
H1       0.20598    0.47253    0.20536   1.00
H1       0.24720    0.52770    0.18726   1.00
H2       0.20797    0.40163    0.16651   1.00
H2       0.20175    0.36253    0.20052   1.00
N1       0.15844    0.40605    0.20343   1.00
C6       0.14321    0.44190    0.19830   1.00
C6       0.12936    0.38243    0.21530   1.00
C6       0.10396    0.44127    0.20718   1.00
C6       0.09516    0.40344    0.21800   1.00
H3       0.15952    0.46719    0.18865   1.00
H3       0.13276    0.35169    0.22179   1.00
H3       0.08397    0.46564    0.20586   1.00
H3       0.06696    0.39242    0.22683   1.00
H2       0.25396    0.63772    0.31724   1.00
H2       0.22732    0.59999    0.34163   1.00
N1       0.28832    0.59477    0.34531   1.00
C6       0.31969    0.61922    0.35685   1.00
C6       0.29790    0.55715    0.35978   1.00
C6       0.34668    0.59723    0.37713   1.00
C6       0.33330    0.55909    0.37891   1.00
H3       0.32189    0.65008    0.35053   1.00
H3       0.28025    0.53124    0.35589   1.00
H3       0.37367    0.60795    0.38944   1.00
H3       0.34809    0.53495    0.39281   1.00
C4       0.25016    0.74965    0.02085   1.00
C4       0.24984    0.75035    -0.02085   1.00
C3       0.28530    0.75150    0.04249   1.00
C3       0.27521    0.77465    -0.04252   1.00
C3       0.21509    0.74793    0.04262   1.00
C3       0.22458    0.72596    -0.04259   1.00
C2       0.25015    0.75007    0.10518   1.00
C2       0.25015    0.75007    -0.10518   1.00
C3a      0.28545    0.75170    0.08401   1.00
C3       0.27529    0.77447    -0.08382   1.00
C3       0.21516    0.74814    0.08389   1.00
C3a      0.22457    0.72569    -0.08403   1.00
H1       0.31283    0.75248    0.02706   1.00
H1       0.29492    0.79425    -0.02750   1.00
C5       0.32346    0.75350    0.10590   1.00
H1       0.29513    0.79355    -0.09933   1.00
H1       0.18768    0.74709    0.09944   1.00
C5       0.19690    0.69905    -0.10535   1.00
H1       0.20536    0.70598    -0.02747   1.00
H1       0.18726    0.74720    0.02770   1.00
H2       0.16651    0.70797    -0.09837   1.00
H2       0.20052    0.70175    -0.13747   1.00
N1       0.20343    0.65844    -0.09395   1.00
C6       0.19830    0.64321    -0.05810   1.00
C6       0.21530    0.62936    -0.11757   1.00
C6       0.20718    0.60396    -0.05873   1.00
C6       0.21800    0.59516    -0.09656   1.00
H3       0.18865    0.65952    -0.03281   1.00
H3       0.22179    0.63276    -0.14831   1.00
H3       0.20586    0.58397    -0.03436   1.00
H3       0.22683    0.56696    -0.10758   1.00
H2       0.31724    0.75396    0.13772   1.00
H2       0.34163    0.72732    0.09999   1.00
N1       0.34531    0.78832    0.09477   1.00
C6       0.35685    0.81969    0.11922   1.00
C6       0.35978    0.79790    0.05715   1.00
C6       0.37713    0.84668    0.09723   1.00
C6       0.37891    0.83330    0.05909   1.00
H3       0.35053    0.82189    0.15008   1.00
H3       0.35589    0.78025    0.03124   1.00
H3       0.38944    0.87367    0.10795   1.00
H3       0.39281    0.84809    0.03495   1.00
C4       0.75016    0.25035    0.47915   1.00
C4       0.74984    0.24965    0.52085   1.00
C3       0.78530    0.24850    0.45751   1.00
C3       0.77521    0.22535    0.54252   1.00
C3       0.71509    0.25207    0.45738   1.00
C3       0.72458    0.27404    0.54259   1.00
C2       0.75015    0.24993    0.39482   1.00
C2       0.75015    0.24993    0.60518   1.00
C3a      0.78545    0.24830    0.41599   1.00
C3       0.77529    0.22553    0.58382   1.00
C3       0.71516    0.25186    0.41611   1.00
C3a      0.72457    0.27431    0.58403   1.00
H1       0.81283    0.24752    0.47294   1.00
H1       0.79492    0.20575    0.52750   1.00
C5       0.82346    0.24650    0.39410   1.00
H1       0.79513    0.20645    0.59933   1.00
H1       0.68768    0.25291    0.40056   1.00
C5       0.69690    0.30095    0.60535   1.00
H1       0.70536    0.29402    0.52747   1.00
H1       0.68726    0.25280    0.47230   1.00
H2       0.66651    0.29203    0.59837   1.00
H2       0.70052    0.29825    0.63747   1.00
N1       0.70343    0.34156    0.59395   1.00
C6       0.69830    0.35679    0.55810   1.00
C6       0.71530    0.37064    0.61757   1.00
C6       0.70718    0.39604    0.55873   1.00
C6       0.71800    0.40484    0.59656   1.00
H3       0.68865    0.34048    0.53281   1.00
H3       0.72179    0.36724    0.64831   1.00
H3       0.70586    0.41603    0.53436   1.00
H3       0.72683    0.43304    0.60758   1.00
H2       0.81724    0.24604    0.36228   1.00
H2       0.84163    0.27268    0.40001   1.00
N1       0.84531    0.21168    0.40523   1.00
C6       0.85685    0.18031    0.38078   1.00
C6       0.85978    0.20210    0.44285   1.00
C6       0.87713    0.15332    0.40277   1.00
C6       0.87891    0.16670    0.44091   1.00
H3       0.85053    0.17811    0.34992   1.00
H3       0.85589    0.21975    0.46876   1.00
H3       0.88944    0.12633    0.39205   1.00
H3       0.89281    0.15191    0.46505   1.00
C4       0.75035    0.47915    0.25016   1.00
C4       0.74965    0.52085    0.24984   1.00
C3       0.74850    0.45751    0.28530   1.00
C3       0.72535    0.54252    0.27521   1.00
C3       0.75207    0.45738    0.21509   1.00
C3       0.77404    0.54259    0.22458   1.00
C2       0.74993    0.39482    0.25015   1.00
C2       0.74993    0.60518    0.25015   1.00
C3a      0.74830    0.41599    0.28545   1.00
C3       0.72553    0.58382    0.27529   1.00
C3       0.75186    0.41611    0.21516   1.00
C3a      0.77431    0.58403    0.22457   1.00
H1       0.74752    0.47294    0.31283   1.00
H1       0.70575    0.52750    0.29492   1.00
C5       0.74650    0.39410    0.32346   1.00
H1       0.70645    0.59933    0.29513   1.00
H1       0.75291    0.40056    0.18768   1.00
C5       0.80095    0.60535    0.19690   1.00
H1       0.79402    0.52747    0.20536   1.00
H1       0.75280    0.47230    0.18726   1.00
H2       0.79203    0.59837    0.16651   1.00
H2       0.79825    0.63747    0.20052   1.00
N1       0.84156    0.59395    0.20343   1.00
C6       0.85679    0.55810    0.19830   1.00
C6       0.87064    0.61757    0.21530   1.00
C6       0.89604    0.55873    0.20718   1.00
C6       0.90484    0.59656    0.21800   1.00
H3       0.84048    0.53281    0.18865   1.00
H3       0.86724    0.64831    0.22179   1.00
H3       0.91603    0.53436    0.20586   1.00
H3       0.93304    0.60758    0.22683   1.00
H2       0.74604    0.36228    0.31724   1.00
H2       0.77268    0.40001    0.34163   1.00
N1       0.71168    0.40523    0.34531   1.00
C6       0.68031    0.38078    0.35685   1.00
C6       0.70210    0.44285    0.35978   1.00
C6       0.65332    0.40277    0.37713   1.00
C6       0.66670    0.44091    0.37891   1.00
H3       0.67811    0.34992    0.35053   1.00
H3       0.71975    0.46876    0.35589   1.00
H3       0.62633    0.39205    0.38944   1.00
H3       0.65191    0.46505    0.39281   1.00
C4       0.52085    0.25016    0.24965   1.00
C4       0.47915    0.24984    0.25035   1.00
C3       0.54249    0.28530    0.25150   1.00
C3       0.45748    0.27521    0.27465   1.00
C3       0.54262    0.21509    0.24793   1.00
C3       0.45741    0.22458    0.22596   1.00
C2       0.60518    0.25015    0.25007   1.00
C2       0.39482    0.25015    0.25007   1.00
C3a      0.58401    0.28545    0.25170   1.00
C3       0.41618    0.27529    0.27447   1.00
C3       0.58389    0.21516    0.24814   1.00
C3a      0.41597    0.22457    0.22569   1.00
H1       0.52706    0.31283    0.25248   1.00
H1       0.47250    0.29492    0.29425   1.00
C5       0.60590    0.32346    0.25350   1.00
H1       0.40067    0.29513    0.29355   1.00
H1       0.59944    0.18768    0.24709   1.00
C5       0.39465    0.19690    0.19905   1.00
H1       0.47253    0.20536    0.20598   1.00
H1       0.52770    0.18726    0.24720   1.00
H2       0.40163    0.16651    0.20797   1.00
H2       0.36253    0.20052    0.20175   1.00
N1       0.40605    0.20343    0.15844   1.00
C6       0.44190    0.19830    0.14321   1.00
C6       0.38243    0.21530    0.12936   1.00
C6       0.44127    0.20718    0.10396   1.00
C6       0.40344    0.21800    0.09516   1.00
H3       0.46719    0.18865    0.15952   1.00
H3       0.35169    0.22179    0.13276   1.00
H3       0.46564    0.20586    0.08397   1.00
H3       0.39242    0.22683    0.06696   1.00
H2       0.63772    0.31724    0.25396   1.00
H2       0.59999    0.34163    0.22732   1.00
N1       0.59477    0.34531    0.28832   1.00
C6       0.61922    0.35685    0.31969   1.00
C6       0.55715    0.35978    0.29790   1.00
C6       0.59723    0.37713    0.34668   1.00
C6       0.55909    0.37891    0.33330   1.00
H3       0.65008    0.35053    0.32189   1.00
H3       0.53124    0.35589    0.28025   1.00
H3       0.60795    0.38944    0.37367   1.00
H3       0.53495    0.39281    0.34809   1.00
C4       0.97915    0.25016    0.25035   1.00
C4       1.02085    0.24984    0.24965   1.00
C3       0.95751    0.28530    0.24850   1.00
C3       1.04252    0.27521    0.22535   1.00
C3       0.95738    0.21509    0.25207   1.00
C3       1.04259    0.22458    0.27404   1.00
C2       0.89482    0.25015    0.24993   1.00
C2       1.10518    0.25015    0.24993   1.00
C3a      0.91599    0.28545    0.24830   1.00
C3       1.08382    0.27529    0.22553   1.00
C3       0.91611    0.21516    0.25186   1.00
C3a      1.08403    0.22457    0.27431   1.00
H1       0.97294    0.31283    0.24752   1.00
H1       1.02750    0.29492    0.20575   1.00
C5       0.89410    0.32346    0.24650   1.00
H1       1.09933    0.29513    0.20645   1.00
H1       0.90056    0.18768    0.25291   1.00
C5       1.10535    0.19690    0.30095   1.00
H1       1.02747    0.20536    0.29402   1.00
H1       0.97230    0.18726    0.25280   1.00
H2       1.09837    0.16651    0.29203   1.00
H2       1.13747    0.20052    0.29825   1.00
N1       1.09395    0.20343    0.34156   1.00
C6       1.05810    0.19830    0.35679   1.00
C6       1.11757    0.21530    0.37064   1.00
C6       1.05873    0.20718    0.39604   1.00
C6       1.09656    0.21800    0.40484   1.00
H3       1.03281    0.18865    0.34048   1.00
H3       1.14831    0.22179    0.36724   1.00
H3       1.03436    0.20586    0.41603   1.00
H3       1.10758    0.22683    0.43304   1.00
H2       0.86228    0.31724    0.24604   1.00
H2       0.90001    0.34163    0.27268   1.00
N1       0.90523    0.34531    0.21168   1.00
C6       0.88078    0.35685    0.18031   1.00
C6       0.94285    0.35978    0.20210   1.00
C6       0.90277    0.37713    0.15332   1.00
C6       0.94091    0.37891    0.16670   1.00
H3       0.84992    0.35053    0.17811   1.00
H3       0.96876    0.35589    0.21975   1.00
H3       0.89205    0.38944    0.12633   1.00
H3       0.96505    0.39281    0.15191   1.00
C4       0.74965    0.02085    0.25016   1.00
C4       0.75035    -0.02085   0.24984   1.00
C3       0.75150    0.04249    0.28530   1.00
C3       0.77465    -0.04252   0.27521   1.00
C3       0.74793    0.04262    0.21509   1.00
C3       0.72596    -0.04259   0.22458   1.00
C2       0.75007    0.10518    0.25015   1.00
C2       0.75007    -0.10518   0.25015   1.00
C3a      0.75170    0.08401    0.28545   1.00
C3       0.77447    -0.08382   0.27529   1.00
C3       0.74814    0.08389    0.21516   1.00
C3a      0.72569    -0.08403   0.22457   1.00
H1       0.75248    0.02706    0.31283   1.00
H1       0.79425    -0.02750   0.29492   1.00
C5       0.75350    0.10590    0.32346   1.00
H1       0.79355    -0.09933   0.29513   1.00
H1       0.74709    0.09944    0.18768   1.00
C5       0.69905    -0.10535   0.19690   1.00
H1       0.70598    -0.02747   0.20536   1.00
H1       0.74720    0.02770    0.18726   1.00
H2       0.70797    -0.09837   0.16651   1.00
H2       0.70175    -0.13747   0.20052   1.00
N1       0.65844    -0.09395   0.20343   1.00
C6       0.64321    -0.05810   0.19830   1.00
C6       0.62936    -0.11757   0.21530   1.00
C6       0.60396    -0.05873   0.20718   1.00
C6       0.59516    -0.09656   0.21800   1.00
H3       0.65952    -0.03281   0.18865   1.00
H3       0.63276    -0.14831   0.22179   1.00
H3       0.58397    -0.03436   0.20586   1.00
H3       0.56696    -0.10758   0.22683   1.00
H2       0.75396    0.13772    0.31724   1.00
H2       0.72732    0.09999    0.34163   1.00
N1       0.78832    0.09477    0.34531   1.00
C6       0.81969    0.11922    0.35685   1.00
C6       0.79790    0.05715    0.35978   1.00
C6       0.84668    0.09723    0.37713   1.00
C6       0.83330    0.05909    0.37891   1.00
H3       0.82189    0.15008    0.35053   1.00
H3       0.78025    0.03124    0.35589   1.00
H3       0.87367    0.10795    0.38944   1.00
H3       0.84809    0.03495    0.39281   1.00
C4       0.75016    0.24965    0.02085   1.00
C4       0.74984    0.25035    -0.02085   1.00
C3       0.78530    0.25150    0.04249   1.00
C3       0.77521    0.27465    -0.04252   1.00
C3       0.71509    0.24793    0.04262   1.00
C3       0.72458    0.22596    -0.04259   1.00
C2       0.75015    0.25007    0.10518   1.00
C2       0.75015    0.25007    -0.10518   1.00
C3a      0.78545    0.25170    0.08401   1.00
C3       0.77529    0.27447    -0.08382   1.00
C3       0.71516    0.24814    0.08389   1.00
C3a      0.72457    0.22569    -0.08403   1.00
H1       0.81283    0.25248    0.02706   1.00
H1       0.79492    0.29425    -0.02750   1.00
C5       0.82346    0.25350    0.10590   1.00
H1       0.79513    0.29355    -0.09933   1.00
H1       0.68768    0.24709    0.09944   1.00
C5       0.69690    0.19905    -0.10535   1.00
H1       0.70536    0.20598    -0.02747   1.00
H1       0.68726    0.24720    0.02770   1.00
H2       0.66651    0.20797    -0.09837   1.00
H2       0.70052    0.20175    -0.13747   1.00
N1       0.70343    0.15844    -0.09395   1.00
C6       0.69830    0.14321    -0.05810   1.00
C6       0.71530    0.12936    -0.11757   1.00
C6       0.70718    0.10396    -0.05873   1.00
C6       0.71800    0.09516    -0.09656   1.00
H3       0.68865    0.15952    -0.03281   1.00
H3       0.72179    0.13276    -0.14831   1.00
H3       0.70586    0.08397    -0.03436   1.00
H3       0.72683    0.06696    -0.10758   1.00
H2       0.81724    0.25396    0.13772   1.00
H2       0.84163    0.22732    0.09999   1.00
N1       0.84531    0.28832    0.09477   1.00
C6       0.85685    0.31969    0.11922   1.00
C6       0.85978    0.29790    0.05715   1.00
C6       0.87713    0.34668    0.09723   1.00
C6       0.87891    0.33330    0.05909   1.00
H3       0.85053    0.32189    0.15008   1.00
H3       0.85589    0.28025    0.03124   1.00
H3       0.88944    0.37367    0.10795   1.00
H3       0.89281    0.34809    0.03495   1.00
C4       0.91516    0.91535    1.14415   1.00
C4       0.91484    0.91465    1.18585   1.00
C3       0.95030    0.91350    1.12251   1.00
C3       0.94021    0.89035    1.20752   1.00
C3       0.88009    0.91707    1.12238   1.00
C3       0.88958    0.93904    1.20759   1.00
C2       0.91515    0.91493    1.05982   1.00
C2       0.91515    0.91493    1.27018   1.00
C3a      0.95045    0.91330    1.08099   1.00
C3       0.94029    0.89053    1.24882   1.00
C3       0.88016    0.91686    1.08111   1.00
C3a      0.88957    0.93931    1.24903   1.00
H1       0.97783    0.91252    1.13794   1.00
H1       0.95992    0.87075    1.19250   1.00
C5       0.98846    0.91150    1.05910   1.00
H1       0.96013    0.87145    1.26433   1.00
H1       0.85268    0.91791    1.06556   1.00
C5       0.86190    0.96595    1.27035   1.00
H1       0.87036    0.95902    1.19247   1.00
H1       0.85226    0.91780    1.13730   1.00
H2       0.83151    0.95703    1.26337   1.00
H2       0.86552    0.96325    1.30247   1.00
N1       0.86843    1.00656    1.25895   1.00
C6       0.86330    1.02179    1.22310   1.00
C6       0.88030    1.03564    1.28257   1.00
C6       0.87218    1.06104    1.22373   1.00
C6       0.88300    1.06984    1.26156   1.00
H3       0.85365    1.00548    1.19781   1.00
H3       0.88679    1.03224    1.31331   1.00
H3       0.87086    1.08103    1.19936   1.00
H3       0.89183    1.09804    1.27258   1.00
H2       0.98224    0.91104    1.02728   1.00
H2       1.00663    0.93768    1.06501   1.00
N1       1.01031    0.87668    1.07023   1.00
C6       1.02185    0.84531    1.04578   1.00
C6       1.02478    0.86710    1.10785   1.00
C6       1.04213    0.81832    1.06777   1.00
C6       1.04391    0.83170    1.10591   1.00
H3       1.01553    0.84311    1.01492   1.00
H3       1.02089    0.88475    1.13376   1.00
H3       1.05444    0.79133    1.05705   1.00
H3       1.05781    0.81691    1.13005   1.00
C4       0.91535    1.14415    0.91516   1.00
C4       0.91465    1.18585    0.91484   1.00
C3       0.91350    1.12251    0.95030   1.00
C3       0.89035    1.20752    0.94021   1.00
C3       0.91707    1.12238    0.88009   1.00
C3       0.93904    1.20759    0.88958   1.00
C2       0.91493    1.05982    0.91515   1.00
C2       0.91493    1.27018    0.91515   1.00
C3a      0.91330    1.08099    0.95045   1.00
C3       0.89053    1.24882    0.94029   1.00
C3       0.91686    1.08111    0.88016   1.00
C3a      0.93931    1.24903    0.88957   1.00
H1       0.91252    1.13794    0.97783   1.00
H1       0.87075    1.19250    0.95992   1.00
C5       0.91150    1.05910    0.98846   1.00
H1       0.87145    1.26433    0.96013   1.00
H1       0.91791    1.06556    0.85268   1.00
C5       0.96595    1.27035    0.86190   1.00
H1       0.95902    1.19247    0.87036   1.00
H1       0.91780    1.13730    0.85226   1.00
H2       0.95703    1.26337    0.83151   1.00
H2       0.96325    1.30247    0.86552   1.00
N1       1.00656    1.25895    0.86843   1.00
C6       1.02179    1.22310    0.86330   1.00
C6       1.03564    1.28257    0.88030   1.00
C6       1.06104    1.22373    0.87218   1.00
C6       1.06984    1.26156    0.88300   1.00
H3       1.00548    1.19781    0.85365   1.00
H3       1.03224    1.31331    0.88679   1.00
H3       1.08103    1.19936    0.87086   1.00
H3       1.09804    1.27258    0.89183   1.00
H2       0.91104    1.02728    0.98224   1.00
H2       0.93768    1.06501    1.00663   1.00
N1       0.87668    1.07023    1.01031   1.00
C6       0.84531    1.04578    1.02185   1.00
C6       0.86710    1.10785    1.02478   1.00
C6       0.81832    1.06777    1.04213   1.00
C6       0.83170    1.10591    1.04391   1.00
H3       0.84311    1.01492    1.01553   1.00
H3       0.88475    1.13376    1.02089   1.00
H3       0.79133    1.05705    1.05444   1.00
H3       0.81691    1.13005    1.05781   1.00
C4       0.68585    0.91516    0.91465   1.00
C4       0.64415    0.91484    0.91535   1.00
C3       0.70749    0.95030    0.91650   1.00
C3       0.62248    0.94021    0.93965   1.00
C3       0.70762    0.88009    0.91293   1.00
C3       0.62241    0.88958    0.89096   1.00
C2       0.77018    0.91515    0.91507   1.00
C2       0.55982    0.91515    0.91507   1.00
C3a      0.74901    0.95045    0.91670   1.00
C3       0.58118    0.94029    0.93947   1.00
C3       0.74889    0.88016    0.91314   1.00
C3a      0.58097    0.88957    0.89069   1.00
H1       0.69206    0.97783    0.91748   1.00
H1       0.63750    0.95992    0.95925   1.00
C5       0.77090    0.98846    0.91850   1.00
H1       0.56567    0.96013    0.95855   1.00
H1       0.76444    0.85268    0.91209   1.00
C5       0.55965    0.86190    0.86405   1.00
H1       0.63753    0.87036    0.87098   1.00
H1       0.69270    0.85226    0.91220   1.00
H2       0.56663    0.83151    0.87297   1.00
H2       0.52753    0.86552    0.86675   1.00
N1       0.57105    0.86843    0.82344   1.00
C6       0.60690    0.86330    0.80821   1.00
C6       0.54743    0.88030    0.79436   1.00
C6       0.60627    0.87218    0.76896   1.00
C6       0.56844    0.88300    0.76016   1.00
H3       0.63219    0.85365    0.82452   1.00
H3       0.51669    0.88679    0.79776   1.00
H3       0.63064    0.87086    0.74897   1.00
H3       0.55742    0.89183    0.73196   1.00
H2       0.80272    0.98224    0.91896   1.00
H2       0.76499    1.00663    0.89232   1.00
N1       0.75977    1.01031    0.95332   1.00
C6       0.78422    1.02185    0.98469   1.00
C6       0.72215    1.02478    0.96290   1.00
C6       0.76223    1.04213    1.01168   1.00
C6       0.72409    1.04391    0.99830   1.00
H3       0.81508    1.01553    0.98689   1.00
H3       0.69624    1.02089    0.94525   1.00
H3       0.77295    1.05444    1.03867   1.00
H3       0.69995    1.05781    1.01309   1.00
C4       1.14415    0.91516    0.91535   1.00
C4       1.18585    0.91484    0.91465   1.00
C3       1.12251    0.95030    0.91350   1.00
C3       1.20752    0.94021    0.89035   1.00
C3       1.12238    0.88009    0.91707   1.00
C3       1.20759    0.88958    0.93904   1.00
C2       1.05982    0.91515    0.91493   1.00
C2       1.27018    0.91515    0.91493   1.00
C3a      1.08099    0.95045    0.91330   1.00
C3       1.24882    0.94029    0.89053   1.00
C3       1.08111    0.88016    0.91686   1.00
C3a      1.24903    0.88957    0.93931   1.00
H1       1.13794    0.97783    0.91252   1.00
H1       1.19250    0.95992    0.87075   1.00
C5       1.05910    0.98846    0.91150   1.00
H1       1.26433    0.96013    0.87145   1.00
H1       1.06556    0.85268    0.91791   1.00
C5       1.27035    0.86190    0.96595   1.00
H1       1.19247    0.87036    0.95902   1.00
H1       1.13730    0.85226    0.91780   1.00
H2       1.26337    0.83151    0.95703   1.00
H2       1.30247    0.86552    0.96325   1.00
N1       1.25895    0.86843    1.00656   1.00
C6       1.22310    0.86330    1.02179   1.00
C6       1.28257    0.88030    1.03564   1.00
C6       1.22373    0.87218    1.06104   1.00
C6       1.26156    0.88300    1.06984   1.00
H3       1.19781    0.85365    1.00548   1.00
H3       1.31331    0.88679    1.03224   1.00
H3       1.19936    0.87086    1.08103   1.00
H3       1.27258    0.89183    1.09804   1.00
H2       1.02728    0.98224    0.91104   1.00
H2       1.06501    1.00663    0.93768   1.00
N1       1.07023    1.01031    0.87668   1.00
C6       1.04578    1.02185    0.84531   1.00
C6       1.10785    1.02478    0.86710   1.00
C6       1.06777    1.04213    0.81832   1.00
C6       1.10591    1.04391    0.83170   1.00
H3       1.01492    1.01553    0.84311   1.00
H3       1.13376    1.02089    0.88475   1.00
H3       1.05705    1.05444    0.79133   1.00
H3       1.13005    1.05781    0.81691   1.00
C4       0.91465    0.68585    0.91516   1.00
C4       0.91535    0.64415    0.91484   1.00
C3       0.91650    0.70749    0.95030   1.00
C3       0.93965    0.62248    0.94021   1.00
C3       0.91293    0.70762    0.88009   1.00
C3       0.89096    0.62241    0.88958   1.00
C2       0.91507    0.77018    0.91515   1.00
C2       0.91507    0.55982    0.91515   1.00
C3a      0.91670    0.74901    0.95045   1.00
C3       0.93947    0.58118    0.94029   1.00
C3       0.91314    0.74889    0.88016   1.00
C3a      0.89069    0.58097    0.88957   1.00
H1       0.91748    0.69206    0.97783   1.00
H1       0.95925    0.63750    0.95992   1.00
C5       0.91850    0.77090    0.98846   1.00
H1       0.95855    0.56567    0.96013   1.00
H1       0.91209    0.76444    0.85268   1.00
C5       0.86405    0.55965    0.86190   1.00
H1       0.87098    0.63753    0.87036   1.00
H1       0.91220    0.69270    0.85226   1.00
H2       0.87297    0.56663    0.83151   1.00
H2       0.86675    0.52753    0.86552   1.00
N1       0.82344    0.57105    0.86843   1.00
C6       0.80821    0.60690    0.86330   1.00
C6       0.79436    0.54743    0.88030   1.00
C6       0.76896    0.60627    0.87218   1.00
C6       0.76016    0.56844    0.88300   1.00
H3       0.82452    0.63219    0.85365   1.00
H3       0.79776    0.51669    0.88679   1.00
H3       0.74897    0.63064    0.87086   1.00
H3       0.73196    0.55742    0.89183   1.00
H2       0.91896    0.80272    0.98224   1.00
H2       0.89232    0.76499    1.00663   1.00
N1       0.95332    0.75977    1.01031   1.00
C6       0.98469    0.78422    1.02185   1.00
C6       0.96290    0.72215    1.02478   1.00
C6       1.01168    0.76223    1.04213   1.00
C6       0.99830    0.72409    1.04391   1.00
H3       0.98689    0.81508    1.01553   1.00
H3       0.94525    0.69624    1.02089   1.00
H3       1.03867    0.77295    1.05444   1.00
H3       1.01309    0.69995    1.05781   1.00
C4       0.91516    0.91465    0.68585   1.00
C4       0.91484    0.91535    0.64415   1.00
C3       0.95030    0.91650    0.70749   1.00
C3       0.94021    0.93965    0.62248   1.00
C3       0.88009    0.91293    0.70762   1.00
C3       0.88958    0.89096    0.62241   1.00
C2       0.91515    0.91507    0.77018   1.00
C2       0.91515    0.91507    0.55982   1.00
C3a      0.95045    0.91670    0.74901   1.00
C3       0.94029    0.93947    0.58118   1.00
C3       0.88016    0.91314    0.74889   1.00
C3a      0.88957    0.89069    0.58097   1.00
H1       0.97783    0.91748    0.69206   1.00
H1       0.95992    0.95925    0.63750   1.00
C5       0.98846    0.91850    0.77090   1.00
H1       0.96013    0.95855    0.56567   1.00
H1       0.85268    0.91209    0.76444   1.00
C5       0.86190    0.86405    0.55965   1.00
H1       0.87036    0.87098    0.63753   1.00
H1       0.85226    0.91220    0.69270   1.00
H2       0.83151    0.87297    0.56663   1.00
H2       0.86552    0.86675    0.52753   1.00
N1       0.86843    0.82344    0.57105   1.00
C6       0.86330    0.80821    0.60690   1.00
C6       0.88030    0.79436    0.54743   1.00
C6       0.87218    0.76896    0.60627   1.00
C6       0.88300    0.76016    0.56844   1.00
H3       0.85365    0.82452    0.63219   1.00
H3       0.88679    0.79776    0.51669   1.00
H3       0.87086    0.74897    0.63064   1.00
H3       0.89183    0.73196    0.55742   1.00
H2       0.98224    0.91896    0.80272   1.00
H2       1.00663    0.89232    0.76499   1.00
N1       1.01031    0.95332    0.75977   1.00
C6       1.02185    0.98469    0.78422   1.00
C6       1.02478    0.96290    0.72215   1.00
C6       1.04213    1.01168    0.76223   1.00
C6       1.04391    0.99830    0.72409   1.00
H3       1.01553    0.98689    0.81508   1.00
H3       1.02089    0.94525    0.69624   1.00
H3       1.05444    1.03867    0.77295   1.00
H3       1.05781    1.01309    0.69995   1.00
C4       0.41516    0.41535    1.14415   1.00
C4       0.41484    0.41465    1.18585   1.00
C3       0.45030    0.41350    1.12251   1.00
C3       0.44021    0.39035    1.20752   1.00
C3       0.38009    0.41707    1.12238   1.00
C3       0.38958    0.43904    1.20759   1.00
C2       0.41515    0.41493    1.05982   1.00
C2       0.41515    0.41493    1.27018   1.00
C3a      0.45045    0.41330    1.08099   1.00
C3       0.44029    0.39053    1.24882   1.00
C3       0.38016    0.41686    1.08111   1.00
C3a      0.38957    0.43931    1.24903   1.00
H1       0.47783    0.41252    1.13794   1.00
H1       0.45992    0.37075    1.19250   1.00
C5       0.48846    0.41150    1.05910   1.00
H1       0.46013    0.37145    1.26433   1.00
H1       0.35268    0.41791    1.06556   1.00
C5       0.36190    0.46595    1.27035   1.00
H1       0.37036    0.45902    1.19247   1.00
H1       0.35226    0.41780    1.13730   1.00
H2       0.33151    0.45703    1.26337   1.00
H2       0.36552    0.46325    1.30247   1.00
N1       0.36843    0.50656    1.25895   1.00
C6       0.36330    0.52179    1.22310   1.00
C6       0.38030    0.53564    1.28257   1.00
C6       0.37218    0.56104    1.22373   1.00
C6       0.38300    0.56984    1.26156   1.00
H3       0.35365    0.50548    1.19781   1.00
H3       0.38679    0.53224    1.31331   1.00
H3       0.37086    0.58103    1.19936   1.00
H3       0.39183    0.59804    1.27258   1.00
H2       0.48224    0.41104    1.02728   1.00
H2       0.50663    0.43768    1.06501   1.00
N1       0.51031    0.37668    1.07023   1.00
C6       0.52185    0.34531    1.04578   1.00
C6       0.52478    0.36710    1.10785   1.00
C6       0.54213    0.31832    1.06777   1.00
C6       0.54391    0.33170    1.10591   1.00
H3       0.51553    0.34311    1.01492   1.00
H3       0.52089    0.38475    1.13376   1.00
H3       0.55444    0.29133    1.05705   1.00
H3       0.55781    0.31691    1.13005   1.00
C4       0.41535    0.64415    0.91516   1.00
C4       0.41465    0.68585    0.91484   1.00
C3       0.41350    0.62251    0.95030   1.00
C3       0.39035    0.70752    0.94021   1.00
C3       0.41707    0.62238    0.88009   1.00
C3       0.43904    0.70759    0.88958   1.00
C2       0.41493    0.55982    0.91515   1.00
C2       0.41493    0.77018    0.91515   1.00
C3a      0.41330    0.58099    0.95045   1.00
C3       0.39053    0.74882    0.94029   1.00
C3       0.41686    0.58111    0.88016   1.00
C3a      0.43931    0.74903    0.88957   1.00
H1       0.41252    0.63794    0.97783   1.00
H1       0.37075    0.69250    0.95992   1.00
C5       0.41150    0.55910    0.98846   1.00
H1       0.37145    0.76433    0.96013   1.00
H1       0.41791    0.56556    0.85268   1.00
C5       0.46595    0.77035    0.86190   1.00
H1       0.45902    0.69247    0.87036   1.00
H1       0.41780    0.63730    0.85226   1.00
H2       0.45703    0.76337    0.83151   1.00
H2       0.46325    0.80247    0.86552   1.00
N1       0.50656    0.75895    0.86843   1.00
C6       0.52179    0.72310    0.86330   1.00
C6       0.53564    0.78257    0.88030   1.00
C6       0.56104    0.72373    0.87218   1.00
C6       0.56984    0.76156    0.88300   1.00
H3       0.50548    0.69781    0.85365   1.00
H3       0.53224    0.81331    0.88679   1.00
H3       0.58103    0.69936    0.87086   1.00
H3       0.59804    0.77258    0.89183   1.00
H2       0.41104    0.52728    0.98224   1.00
H2       0.43768    0.56501    1.00663   1.00
N1       0.37668    0.57023    1.01031   1.00
C6       0.34531    0.54578    1.02185   1.00
C6       0.36710    0.60785    1.02478   1.00
C6       0.31832    0.56777    1.04213   1.00
C6       0.33170    0.60591    1.04391   1.00
H3       0.34311    0.51492    1.01553   1.00
H3       0.38475    0.63376    1.02089   1.00
H3       0.29133    0.55705    1.05444   1.00
H3       0.31691    0.63005    1.05781   1.00
C4       0.18585    0.41516    0.91465   1.00
C4       0.14415    0.41484    0.91535   1.00
C3       0.20749    0.45030    0.91650   1.00
C3       0.12248    0.44021    0.93965   1.00
C3       0.20762    0.38009    0.91293   1.00
C3       0.12241    0.38958    0.89096   1.00
C2       0.27018    0.41515    0.91507   1.00
C2       0.05982    0.41515    0.91507   1.00
C3a      0.24901    0.45045    0.91670   1.00
C3       0.08118    0.44029    0.93947   1.00
C3       0.24889    0.38016    0.91314   1.00
C3a      0.08097    0.38957    0.89069   1.00
H1       0.19206    0.47783    0.91748   1.00
H1       0.13750    0.45992    0.95925   1.00
C5       0.27090    0.48846    0.91850   1.00
H1       0.06567    0.46013    0.95855   1.00
H1       0.26444    0.35268    0.91209   1.00
C5       0.05965    0.36190    0.86405   1.00
H1       0.13753    0.37036    0.87098   1.00
H1       0.19270    0.35226    0.91220   1.00
H2       0.06663    0.33151    0.87297   1.00
H2       0.02753    0.36552    0.86675   1.00
N1       0.07105    0.36843    0.82344   1.00
C6       0.10690    0.36330    0.80821   1.00
C6       0.04743    0.38030    0.79436   1.00
C6       0.10627    0.37218    0.76896   1.00
C6       0.06844    0.38300    0.76016   1.00
H3       0.13219    0.35365    0.82452   1.00
H3       0.01669    0.38679    0.79776   1.00
H3       0.13064    0.37086    0.74897   1.00
H3       0.05742    0.39183    0.73196   1.00
H2       0.30272    0.48224    0.91896   1.00
H2       0.26499    0.50663    0.89232   1.00
N1       0.25977    0.51031    0.95332   1.00
C6       0.28422    0.52185    0.98469   1.00
C6       0.22215    0.52478    0.96290   1.00
C6       0.26223    0.54213    1.01168   1.00
C6       0.22409    0.54391    0.99830   1.00
H3       0.31508    0.51553    0.98689   1.00
H3       0.19624    0.52089    0.94525   1.00
H3       0.27295    0.55444    1.03867   1.00
H3       0.19995    0.55781    1.01309   1.00
C4       0.64415    0.41516    0.91535   1.00
C4       0.68585    0.41484    0.91465   1.00
C3       0.62251    0.45030    0.91350   1.00
C3       0.70752    0.44021    0.89035   1.00
C3       0.62238    0.38009    0.91707   1.00
C3       0.70759    0.38958    0.93904   1.00
C2       0.55982    0.41515    0.91493   1.00
C2       0.77018    0.41515    0.91493   1.00
C3a      0.58099    0.45045    0.91330   1.00
C3       0.74882    0.44029    0.89053   1.00
C3       0.58111    0.38016    0.91686   1.00
C3a      0.74903    0.38957    0.93931   1.00
H1       0.63794    0.47783    0.91252   1.00
H1       0.69250    0.45992    0.87075   1.00
C5       0.55910    0.48846    0.91150   1.00
H1       0.76433    0.46013    0.87145   1.00
H1       0.56556    0.35268    0.91791   1.00
C5       0.77035    0.36190    0.96595   1.00
H1       0.69247    0.37036    0.95902   1.00
H1       0.63730    0.35226    0.91780   1.00
H2       0.76337    0.33151    0.95703   1.00
H2       0.80247    0.36552    0.96325   1.00
N1       0.75895    0.36843    1.00656   1.00
C6       0.72310    0.36330    1.02179   1.00
C6       0.78257    0.38030    1.03564   1.00
C6       0.72373    0.37218    1.06104   1.00
C6       0.76156    0.38300    1.06984   1.00
H3       0.69781    0.35365    1.00548   1.00
H3       0.81331    0.38679    1.03224   1.00
H3       0.69936    0.37086    1.08103   1.00
H3       0.77258    0.39183    1.09804   1.00
H2       0.52728    0.48224    0.91104   1.00
H2       0.56501    0.50663    0.93768   1.00
N1       0.57023    0.51031    0.87668   1.00
C6       0.54578    0.52185    0.84531   1.00
C6       0.60785    0.52478    0.86710   1.00
C6       0.56777    0.54213    0.81832   1.00
C6       0.60591    0.54391    0.83170   1.00
H3       0.51492    0.51553    0.84311   1.00
H3       0.63376    0.52089    0.88475   1.00
H3       0.55705    0.55444    0.79133   1.00
H3       0.63005    0.55781    0.81691   1.00
C4       0.41465    0.18585    0.91516   1.00
C4       0.41535    0.14415    0.91484   1.00
C3       0.41650    0.20749    0.95030   1.00
C3       0.43965    0.12248    0.94021   1.00
C3       0.41293    0.20762    0.88009   1.00
C3       0.39096    0.12241    0.88958   1.00
C2       0.41507    0.27018    0.91515   1.00
C2       0.41507    0.05982    0.91515   1.00
C3a      0.41670    0.24901    0.95045   1.00
C3       0.43947    0.08118    0.94029   1.00
C3       0.41314    0.24889    0.88016   1.00
C3a      0.39069    0.08097    0.88957   1.00
H1       0.41748    0.19206    0.97783   1.00
H1       0.45925    0.13750    0.95992   1.00
C5       0.41850    0.27090    0.98846   1.00
H1       0.45855    0.06567    0.96013   1.00
H1       0.41209    0.26444    0.85268   1.00
C5       0.36405    0.05965    0.86190   1.00
H1       0.37098    0.13753    0.87036   1.00
H1       0.41220    0.19270    0.85226   1.00
H2       0.37297    0.06663    0.83151   1.00
H2       0.36675    0.02753    0.86552   1.00
N1       0.32344    0.07105    0.86843   1.00
C6       0.30821    0.10690    0.86330   1.00
C6       0.29436    0.04743    0.88030   1.00
C6       0.26896    0.10627    0.87218   1.00
C6       0.26016    0.06844    0.88300   1.00
H3       0.32452    0.13219    0.85365   1.00
H3       0.29776    0.01669    0.88679   1.00
H3       0.24897    0.13064    0.87086   1.00
H3       0.23196    0.05742    0.89183   1.00
H2       0.41896    0.30272    0.98224   1.00
H2       0.39232    0.26499    1.00663   1.00
N1       0.45332    0.25977    1.01031   1.00
C6       0.48469    0.28422    1.02185   1.00
C6       0.46290    0.22215    1.02478   1.00
C6       0.51168    0.26223    1.04213   1.00
C6       0.49830    0.22409    1.04391   1.00
H3       0.48689    0.31508    1.01553   1.00
H3       0.44525    0.19624    1.02089   1.00
H3       0.53867    0.27295    1.05444   1.00
H3       0.51309    0.19995    1.05781   1.00
C4       0.41516    0.41465    0.68585   1.00
C4       0.41484    0.41535    0.64415   1.00
C3       0.45030    0.41650    0.70749   1.00
C3       0.44021    0.43965    0.62248   1.00
C3       0.38009    0.41293    0.70762   1.00
C3       0.38958    0.39096    0.62241   1.00
C2       0.41515    0.41507    0.77018   1.00
C2       0.41515    0.41507    0.55982   1.00
C3a      0.45045    0.41670    0.74901   1.00
C3       0.44029    0.43947    0.58118   1.00
C3       0.38016    0.41314    0.74889   1.00
C3a      0.38957    0.39069    0.58097   1.00
H1       0.47783    0.41748    0.69206   1.00
H1       0.45992    0.45925    0.63750   1.00
C5       0.48846    0.41850    0.77090   1.00
H1       0.46013    0.45855    0.56567   1.00
H1       0.35268    0.41209    0.76444   1.00
C5       0.36190    0.36405    0.55965   1.00
H1       0.37036    0.37098    0.63753   1.00
H1       0.35226    0.41220    0.69270   1.00
H2       0.33151    0.37297    0.56663   1.00
H2       0.36552    0.36675    0.52753   1.00
N1       0.36843    0.32344    0.57105   1.00
C6       0.36330    0.30821    0.60690   1.00
C6       0.38030    0.29436    0.54743   1.00
C6       0.37218    0.26896    0.60627   1.00
C6       0.38300    0.26016    0.56844   1.00
H3       0.35365    0.32452    0.63219   1.00
H3       0.38679    0.29776    0.51669   1.00
H3       0.37086    0.24897    0.63064   1.00
H3       0.39183    0.23196    0.55742   1.00
H2       0.48224    0.41896    0.80272   1.00
H2       0.50663    0.39232    0.76499   1.00
N1       0.51031    0.45332    0.75977   1.00
C6       0.52185    0.48469    0.78422   1.00
C6       0.52478    0.46290    0.72215   1.00
C6       0.54213    0.51168    0.76223   1.00
C6       0.54391    0.49830    0.72409   1.00
H3       0.51553    0.48689    0.81508   1.00
H3       0.52089    0.44525    0.69624   1.00
H3       0.55444    0.53867    0.77295   1.00
H3       0.55781    0.51309    0.69995   1.00
C4       0.41516    0.91535    0.64415   1.00
C4       0.41484    0.91465    0.68585   1.00
C3       0.45030    0.91350    0.62251   1.00
C3       0.44021    0.89035    0.70752   1.00
C3       0.38009    0.91707    0.62238   1.00
C3       0.38958    0.93904    0.70759   1.00
C2       0.41515    0.91493    0.55982   1.00
C2       0.41515    0.91493    0.77018   1.00
C3a      0.45045    0.91330    0.58099   1.00
C3       0.44029    0.89053    0.74882   1.00
C3       0.38016    0.91686    0.58111   1.00
C3a      0.38957    0.93931    0.74903   1.00
H1       0.47783    0.91252    0.63794   1.00
H1       0.45992    0.87075    0.69250   1.00
C5       0.48846    0.91150    0.55910   1.00
H1       0.46013    0.87145    0.76433   1.00
H1       0.35268    0.91791    0.56556   1.00
C5       0.36190    0.96595    0.77035   1.00
H1       0.37036    0.95902    0.69247   1.00
H1       0.35226    0.91780    0.63730   1.00
H2       0.33151    0.95703    0.76337   1.00
H2       0.36552    0.96325    0.80247   1.00
N1       0.36843    1.00656    0.75895   1.00
C6       0.36330    1.02179    0.72310   1.00
C6       0.38030    1.03564    0.78257   1.00
C6       0.37218    1.06104    0.72373   1.00
C6       0.38300    1.06984    0.76156   1.00
H3       0.35365    1.00548    0.69781   1.00
H3       0.38679    1.03224    0.81331   1.00
H3       0.37086    1.08103    0.69936   1.00
H3       0.39183    1.09804    0.77258   1.00
H2       0.48224    0.91104    0.52728   1.00
H2       0.50663    0.93768    0.56501   1.00
N1       0.51031    0.87668    0.57023   1.00
C6       0.52185    0.84531    0.54578   1.00
C6       0.52478    0.86710    0.60785   1.00
C6       0.54213    0.81832    0.56777   1.00
C6       0.54391    0.83170    0.60591   1.00
H3       0.51553    0.84311    0.51492   1.00
H3       0.52089    0.88475    0.63376   1.00
H3       0.55444    0.79133    0.55705   1.00
H3       0.55781    0.81691    0.63005   1.00
C4       0.41535    1.14415    0.41516   1.00
C4       0.41465    1.18585    0.41484   1.00
C3       0.41350    1.12251    0.45030   1.00
C3       0.39035    1.20752    0.44021   1.00
C3       0.41707    1.12238    0.38009   1.00
C3       0.43904    1.20759    0.38958   1.00
C2       0.41493    1.05982    0.41515   1.00
C2       0.41493    1.27018    0.41515   1.00
C3a      0.41330    1.08099    0.45045   1.00
C3       0.39053    1.24882    0.44029   1.00
C3       0.41686    1.08111    0.38016   1.00
C3a      0.43931    1.24903    0.38957   1.00
H1       0.41252    1.13794    0.47783   1.00
H1       0.37075    1.19250    0.45992   1.00
C5       0.41150    1.05910    0.48846   1.00
H1       0.37145    1.26433    0.46013   1.00
H1       0.41791    1.06556    0.35268   1.00
C5       0.46595    1.27035    0.36190   1.00
H1       0.45902    1.19247    0.37036   1.00
H1       0.41780    1.13730    0.35226   1.00
H2       0.45703    1.26337    0.33151   1.00
H2       0.46325    1.30247    0.36552   1.00
N1       0.50656    1.25895    0.36843   1.00
C6       0.52179    1.22310    0.36330   1.00
C6       0.53564    1.28257    0.38030   1.00
C6       0.56104    1.22373    0.37218   1.00
C6       0.56984    1.26156    0.38300   1.00
H3       0.50548    1.19781    0.35365   1.00
H3       0.53224    1.31331    0.38679   1.00
H3       0.58103    1.19936    0.37086   1.00
H3       0.59804    1.27258    0.39183   1.00
H2       0.41104    1.02728    0.48224   1.00
H2       0.43768    1.06501    0.50663   1.00
N1       0.37668    1.07023    0.51031   1.00
C6       0.34531    1.04578    0.52185   1.00
C6       0.36710    1.10785    0.52478   1.00
C6       0.31832    1.06777    0.54213   1.00
C6       0.33170    1.10591    0.54391   1.00
H3       0.34311    1.01492    0.51553   1.00
H3       0.38475    1.13376    0.52089   1.00
H3       0.29133    1.05705    0.55444   1.00
H3       0.31691    1.13005    0.55781   1.00
C4       0.18585    0.91516    0.41465   1.00
C4       0.14415    0.91484    0.41535   1.00
C3       0.20749    0.95030    0.41650   1.00
C3       0.12248    0.94021    0.43965   1.00
C3       0.20762    0.88009    0.41293   1.00
C3       0.12241    0.88958    0.39096   1.00
C2       0.27018    0.91515    0.41507   1.00
C2       0.05982    0.91515    0.41507   1.00
C3a      0.24901    0.95045    0.41670   1.00
C3       0.08118    0.94029    0.43947   1.00
C3       0.24889    0.88016    0.41314   1.00
C3a      0.08097    0.88957    0.39069   1.00
H1       0.19206    0.97783    0.41748   1.00
H1       0.13750    0.95992    0.45925   1.00
C5       0.27090    0.98846    0.41850   1.00
H1       0.06567    0.96013    0.45855   1.00
H1       0.26444    0.85268    0.41209   1.00
C5       0.05965    0.86190    0.36405   1.00
H1       0.13753    0.87036    0.37098   1.00
H1       0.19270    0.85226    0.41220   1.00
H2       0.06663    0.83151    0.37297   1.00
H2       0.02753    0.86552    0.36675   1.00
N1       0.07105    0.86843    0.32344   1.00
C6       0.10690    0.86330    0.30821   1.00
C6       0.04743    0.88030    0.29436   1.00
C6       0.10627    0.87218    0.26896   1.00
C6       0.06844    0.88300    0.26016   1.00
H3       0.13219    0.85365    0.32452   1.00
H3       0.01669    0.88679    0.29776   1.00
H3       0.13064    0.87086    0.24897   1.00
H3       0.05742    0.89183    0.23196   1.00
H2       0.30272    0.98224    0.41896   1.00
H2       0.26499    1.00663    0.39232   1.00
N1       0.25977    1.01031    0.45332   1.00
C6       0.28422    1.02185    0.48469   1.00
C6       0.22215    1.02478    0.46290   1.00
C6       0.26223    1.04213    0.51168   1.00
C6       0.22409    1.04391    0.49830   1.00
H3       0.31508    1.01553    0.48689   1.00
H3       0.19624    1.02089    0.44525   1.00
H3       0.27295    1.05444    0.53867   1.00
H3       0.19995    1.05781    0.51309   1.00
C4       0.64415    0.91516    0.41535   1.00
C4       0.68585    0.91484    0.41465   1.00
C3       0.62251    0.95030    0.41350   1.00
C3       0.70752    0.94021    0.39035   1.00
C3       0.62238    0.88009    0.41707   1.00
C3       0.70759    0.88958    0.43904   1.00
C2       0.55982    0.91515    0.41493   1.00
C2       0.77018    0.91515    0.41493   1.00
C3a      0.58099    0.95045    0.41330   1.00
C3       0.74882    0.94029    0.39053   1.00
C3       0.58111    0.88016    0.41686   1.00
C3a      0.74903    0.88957    0.43931   1.00
H1       0.63794    0.97783    0.41252   1.00
H1       0.69250    0.95992    0.37075   1.00
C5       0.55910    0.98846    0.41150   1.00
H1       0.76433    0.96013    0.37145   1.00
H1       0.56556    0.85268    0.41791   1.00
C5       0.77035    0.86190    0.46595   1.00
H1       0.69247    0.87036    0.45902   1.00
H1       0.63730    0.85226    0.41780   1.00
H2       0.76337    0.83151    0.45703   1.00
H2       0.80247    0.86552    0.46325   1.00
N1       0.75895    0.86843    0.50656   1.00
C6       0.72310    0.86330    0.52179   1.00
C6       0.78257    0.88030    0.53564   1.00
C6       0.72373    0.87218    0.56104   1.00
C6       0.76156    0.88300    0.56984   1.00
H3       0.69781    0.85365    0.50548   1.00
H3       0.81331    0.88679    0.53224   1.00
H3       0.69936    0.87086    0.58103   1.00
H3       0.77258    0.89183    0.59804   1.00
H2       0.52728    0.98224    0.41104   1.00
H2       0.56501    1.00663    0.43768   1.00
N1       0.57023    1.01031    0.37668   1.00
C6       0.54578    1.02185    0.34531   1.00
C6       0.60785    1.02478    0.36710   1.00
C6       0.56777    1.04213    0.31832   1.00
C6       0.60591    1.04391    0.33170   1.00
H3       0.51492    1.01553    0.34311   1.00
H3       0.63376    1.02089    0.38475   1.00
H3       0.55705    1.05444    0.29133   1.00
H3       0.63005    1.05781    0.31691   1.00
C4       0.41465    0.68585    0.41516   1.00
C4       0.41535    0.64415    0.41484   1.00
C3       0.41650    0.70749    0.45030   1.00
C3       0.43965    0.62248    0.44021   1.00
C3       0.41293    0.70762    0.38009   1.00
C3       0.39096    0.62241    0.38958   1.00
C2       0.41507    0.77018    0.41515   1.00
C2       0.41507    0.55982    0.41515   1.00
C3a      0.41670    0.74901    0.45045   1.00
C3       0.43947    0.58118    0.44029   1.00
C3       0.41314    0.74889    0.38016   1.00
C3a      0.39069    0.58097    0.38957   1.00
H1       0.41748    0.69206    0.47783   1.00
H1       0.45925    0.63750    0.45992   1.00
C5       0.41850    0.77090    0.48846   1.00
H1       0.45855    0.56567    0.46013   1.00
H1       0.41209    0.76444    0.35268   1.00
C5       0.36405    0.55965    0.36190   1.00
H1       0.37098    0.63753    0.37036   1.00
H1       0.41220    0.69270    0.35226   1.00
H2       0.37297    0.56663    0.33151   1.00
H2       0.36675    0.52753    0.36552   1.00
N1       0.32344    0.57105    0.36843   1.00
C6       0.30821    0.60690    0.36330   1.00
C6       0.29436    0.54743    0.38030   1.00
C6       0.26896    0.60627    0.37218   1.00
C6       0.26016    0.56844    0.38300   1.00
H3       0.32452    0.63219    0.35365   1.00
H3       0.29776    0.51669    0.38679   1.00
H3       0.24897    0.63064    0.37086   1.00
H3       0.23196    0.55742    0.39183   1.00
H2       0.41896    0.80272    0.48224   1.00
H2       0.39232    0.76499    0.50663   1.00
N1       0.45332    0.75977    0.51031   1.00
C6       0.48469    0.78422    0.52185   1.00
C6       0.46290    0.72215    0.52478   1.00
C6       0.51168    0.76223    0.54213   1.00
C6       0.49830    0.72409    0.54391   1.00
H3       0.48689    0.81508    0.51553   1.00
H3       0.44525    0.69624    0.52089   1.00
H3       0.53867    0.77295    0.55444   1.00
H3       0.51309    0.69995    0.55781   1.00
C4       0.41516    0.91465    0.18585   1.00
C4       0.41484    0.91535    0.14415   1.00
C3       0.45030    0.91650    0.20749   1.00
C3       0.44021    0.93965    0.12248   1.00
C3       0.38009    0.91293    0.20762   1.00
C3       0.38958    0.89096    0.12241   1.00
C2       0.41515    0.91507    0.27018   1.00
C2       0.41515    0.91507    0.05982   1.00
C3a      0.45045    0.91670    0.24901   1.00
C3       0.44029    0.93947    0.08118   1.00
C3       0.38016    0.91314    0.24889   1.00
C3a      0.38957    0.89069    0.08097   1.00
H1       0.47783    0.91748    0.19206   1.00
H1       0.45992    0.95925    0.13750   1.00
C5       0.48846    0.91850    0.27090   1.00
H1       0.46013    0.95855    0.06567   1.00
H1       0.35268    0.91209    0.26444   1.00
C5       0.36190    0.86405    0.05965   1.00
H1       0.37036    0.87098    0.13753   1.00
H1       0.35226    0.91220    0.19270   1.00
H2       0.33151    0.87297    0.06663   1.00
H2       0.36552    0.86675    0.02753   1.00
N1       0.36843    0.82344    0.07105   1.00
C6       0.36330    0.80821    0.10690   1.00
C6       0.38030    0.79436    0.04743   1.00
C6       0.37218    0.76896    0.10627   1.00
C6       0.38300    0.76016    0.06844   1.00
H3       0.35365    0.82452    0.13219   1.00
H3       0.38679    0.79776    0.01669   1.00
H3       0.37086    0.74897    0.13064   1.00
H3       0.39183    0.73196    0.05742   1.00
H2       0.48224    0.91896    0.30272   1.00
H2       0.50663    0.89232    0.26499   1.00
N1       0.51031    0.95332    0.25977   1.00
C6       0.52185    0.98469    0.28422   1.00
C6       0.52478    0.96290    0.22215   1.00
C6       0.54213    1.01168    0.26223   1.00
C6       0.54391    0.99830    0.22409   1.00
H3       0.51553    0.98689    0.31508   1.00
H3       0.52089    0.94525    0.19624   1.00
H3       0.55444    1.03867    0.27295   1.00
H3       0.55781    1.01309    0.19995   1.00
C4       0.91516    0.41535    0.64415   1.00
C4       0.91484    0.41465    0.68585   1.00
C3       0.95030    0.41350    0.62251   1.00
C3       0.94021    0.39035    0.70752   1.00
C3       0.88009    0.41707    0.62238   1.00
C3       0.88958    0.43904    0.70759   1.00
C2       0.91515    0.41493    0.55982   1.00
C2       0.91515    0.41493    0.77018   1.00
C3a      0.95045    0.41330    0.58099   1.00
C3       0.94029    0.39053    0.74882   1.00
C3       0.88016    0.41686    0.58111   1.00
C3a      0.88957    0.43931    0.74903   1.00
H1       0.97783    0.41252    0.63794   1.00
H1       0.95992    0.37075    0.69250   1.00
C5       0.98846    0.41150    0.55910   1.00
H1       0.96013    0.37145    0.76433   1.00
H1       0.85268    0.41791    0.56556   1.00
C5       0.86190    0.46595    0.77035   1.00
H1       0.87036    0.45902    0.69247   1.00
H1       0.85226    0.41780    0.63730   1.00
H2       0.83151    0.45703    0.76337   1.00
H2       0.86552    0.46325    0.80247   1.00
N1       0.86843    0.50656    0.75895   1.00
C6       0.86330    0.52179    0.72310   1.00
C6       0.88030    0.53564    0.78257   1.00
C6       0.87218    0.56104    0.72373   1.00
C6       0.88300    0.56984    0.76156   1.00
H3       0.85365    0.50548    0.69781   1.00
H3       0.88679    0.53224    0.81331   1.00
H3       0.87086    0.58103    0.69936   1.00
H3       0.89183    0.59804    0.77258   1.00
H2       0.98224    0.41104    0.52728   1.00
H2       1.00663    0.43768    0.56501   1.00
N1       1.01031    0.37668    0.57023   1.00
C6       1.02185    0.34531    0.54578   1.00
C6       1.02478    0.36710    0.60785   1.00
C6       1.04213    0.31832    0.56777   1.00
C6       1.04391    0.33170    0.60591   1.00
H3       1.01553    0.34311    0.51492   1.00
H3       1.02089    0.38475    0.63376   1.00
H3       1.05444    0.29133    0.55705   1.00
H3       1.05781    0.31691    0.63005   1.00
C4       0.91535    0.64415    0.41516   1.00
C4       0.91465    0.68585    0.41484   1.00
C3       0.91350    0.62251    0.45030   1.00
C3       0.89035    0.70752    0.44021   1.00
C3       0.91707    0.62238    0.38009   1.00
C3       0.93904    0.70759    0.38958   1.00
C2       0.91493    0.55982    0.41515   1.00
C2       0.91493    0.77018    0.41515   1.00
C3a      0.91330    0.58099    0.45045   1.00
C3       0.89053    0.74882    0.44029   1.00
C3       0.91686    0.58111    0.38016   1.00
C3a      0.93931    0.74903    0.38957   1.00
H1       0.91252    0.63794    0.47783   1.00
H1       0.87075    0.69250    0.45992   1.00
C5       0.91150    0.55910    0.48846   1.00
H1       0.87145    0.76433    0.46013   1.00
H1       0.91791    0.56556    0.35268   1.00
C5       0.96595    0.77035    0.36190   1.00
H1       0.95902    0.69247    0.37036   1.00
H1       0.91780    0.63730    0.35226   1.00
H2       0.95703    0.76337    0.33151   1.00
H2       0.96325    0.80247    0.36552   1.00
N1       1.00656    0.75895    0.36843   1.00
C6       1.02179    0.72310    0.36330   1.00
C6       1.03564    0.78257    0.38030   1.00
C6       1.06104    0.72373    0.37218   1.00
C6       1.06984    0.76156    0.38300   1.00
H3       1.00548    0.69781    0.35365   1.00
H3       1.03224    0.81331    0.38679   1.00
H3       1.08103    0.69936    0.37086   1.00
H3       1.09804    0.77258    0.39183   1.00
H2       0.91104    0.52728    0.48224   1.00
H2       0.93768    0.56501    0.50663   1.00
N1       0.87668    0.57023    0.51031   1.00
C6       0.84531    0.54578    0.52185   1.00
C6       0.86710    0.60785    0.52478   1.00
C6       0.81832    0.56777    0.54213   1.00
C6       0.83170    0.60591    0.54391   1.00
H3       0.84311    0.51492    0.51553   1.00
H3       0.88475    0.63376    0.52089   1.00
H3       0.79133    0.55705    0.55444   1.00
H3       0.81691    0.63005    0.55781   1.00
C4       0.68585    0.41516    0.41465   1.00
C4       0.64415    0.41484    0.41535   1.00
C3       0.70749    0.45030    0.41650   1.00
C3       0.62248    0.44021    0.43965   1.00
C3       0.70762    0.38009    0.41293   1.00
C3       0.62241    0.38958    0.39096   1.00
C2       0.77018    0.41515    0.41507   1.00
C2       0.55982    0.41515    0.41507   1.00
C3a      0.74901    0.45045    0.41670   1.00
C3       0.58118    0.44029    0.43947   1.00
C3       0.74889    0.38016    0.41314   1.00
C3a      0.58097    0.38957    0.39069   1.00
H1       0.69206    0.47783    0.41748   1.00
H1       0.63750    0.45992    0.45925   1.00
C5       0.77090    0.48846    0.41850   1.00
H1       0.56567    0.46013    0.45855   1.00
H1       0.76444    0.35268    0.41209   1.00
C5       0.55965    0.36190    0.36405   1.00
H1       0.63753    0.37036    0.37098   1.00
H1       0.69270    0.35226    0.41220   1.00
H2       0.56663    0.33151    0.37297   1.00
H2       0.52753    0.36552    0.36675   1.00
N1       0.57105    0.36843    0.32344   1.00
C6       0.60690    0.36330    0.30821   1.00
C6       0.54743    0.38030    0.29436   1.00
C6       0.60627    0.37218    0.26896   1.00
C6       0.56844    0.38300    0.26016   1.00
H3       0.63219    0.35365    0.32452   1.00
H3       0.51669    0.38679    0.29776   1.00
H3       0.63064    0.37086    0.24897   1.00
H3       0.55742    0.39183    0.23196   1.00
H2       0.80272    0.48224    0.41896   1.00
H2       0.76499    0.50663    0.39232   1.00
N1       0.75977    0.51031    0.45332   1.00
C6       0.78422    0.52185    0.48469   1.00
C6       0.72215    0.52478    0.46290   1.00
C6       0.76223    0.54213    0.51168   1.00
C6       0.72409    0.54391    0.49830   1.00
H3       0.81508    0.51553    0.48689   1.00
H3       0.69624    0.52089    0.44525   1.00
H3       0.77295    0.55444    0.53867   1.00
H3       0.69995    0.55781    0.51309   1.00
C4       1.14415    0.41516    0.41535   1.00
C4       1.18585    0.41484    0.41465   1.00
C3       1.12251    0.45030    0.41350   1.00
C3       1.20752    0.44021    0.39035   1.00
C3       1.12238    0.38009    0.41707   1.00
C3       1.20759    0.38958    0.43904   1.00
C2       1.05982    0.41515    0.41493   1.00
C2       1.27018    0.41515    0.41493   1.00
C3a      1.08099    0.45045    0.41330   1.00
C3       1.24882    0.44029    0.39053   1.00
C3       1.08111    0.38016    0.41686   1.00
C3a      1.24903    0.38957    0.43931   1.00
H1       1.13794    0.47783    0.41252   1.00
H1       1.19250    0.45992    0.37075   1.00
C5       1.05910    0.48846    0.41150   1.00
H1       1.26433    0.46013    0.37145   1.00
H1       1.06556    0.35268    0.41791   1.00
C5       1.27035    0.36190    0.46595   1.00
H1       1.19247    0.37036    0.45902   1.00
H1       1.13730    0.35226    0.41780   1.00
H2       1.26337    0.33151    0.45703   1.00
H2       1.30247    0.36552    0.46325   1.00
N1       1.25895    0.36843    0.50656   1.00
C6       1.22310    0.36330    0.52179   1.00
C6       1.28257    0.38030    0.53564   1.00
C6       1.22373    0.37218    0.56104   1.00
C6       1.26156    0.38300    0.56984   1.00
H3       1.19781    0.35365    0.50548   1.00
H3       1.31331    0.38679    0.53224   1.00
H3       1.19936    0.37086    0.58103   1.00
H3       1.27258    0.39183    0.59804   1.00
H2       1.02728    0.48224    0.41104   1.00
H2       1.06501    0.50663    0.43768   1.00
N1       1.07023    0.51031    0.37668   1.00
C6       1.04578    0.52185    0.34531   1.00
C6       1.10785    0.52478    0.36710   1.00
C6       1.06777    0.54213    0.31832   1.00
C6       1.10591    0.54391    0.33170   1.00
H3       1.01492    0.51553    0.34311   1.00
H3       1.13376    0.52089    0.38475   1.00
H3       1.05705    0.55444    0.29133   1.00
H3       1.13005    0.55781    0.31691   1.00
C4       0.91465    0.18585    0.41516   1.00
C4       0.91535    0.14415    0.41484   1.00
C3       0.91650    0.20749    0.45030   1.00
C3       0.93965    0.12248    0.44021   1.00
C3       0.91293    0.20762    0.38009   1.00
C3       0.89096    0.12241    0.38958   1.00
C2       0.91507    0.27018    0.41515   1.00
C2       0.91507    0.05982    0.41515   1.00
C3a      0.91670    0.24901    0.45045   1.00
C3       0.93947    0.08118    0.44029   1.00
C3       0.91314    0.24889    0.38016   1.00
C3a      0.89069    0.08097    0.38957   1.00
H1       0.91748    0.19206    0.47783   1.00
H1       0.95925    0.13750    0.45992   1.00
C5       0.91850    0.27090    0.48846   1.00
H1       0.95855    0.06567    0.46013   1.00
H1       0.91209    0.26444    0.35268   1.00
C5       0.86405    0.05965    0.36190   1.00
H1       0.87098    0.13753    0.37036   1.00
H1       0.91220    0.19270    0.35226   1.00
H2       0.87297    0.06663    0.33151   1.00
H2       0.86675    0.02753    0.36552   1.00
N1       0.82344    0.07105    0.36843   1.00
C6       0.80821    0.10690    0.36330   1.00
C6       0.79436    0.04743    0.38030   1.00
C6       0.76896    0.10627    0.37218   1.00
C6       0.76016    0.06844    0.38300   1.00
H3       0.82452    0.13219    0.35365   1.00
H3       0.79776    0.01669    0.38679   1.00
H3       0.74897    0.13064    0.37086   1.00
H3       0.73196    0.05742    0.39183   1.00
H2       0.91896    0.30272    0.48224   1.00
H2       0.89232    0.26499    0.50663   1.00
N1       0.95332    0.25977    0.51031   1.00
C6       0.98469    0.28422    0.52185   1.00
C6       0.96290    0.22215    0.52478   1.00
C6       1.01168    0.26223    0.54213   1.00
C6       0.99830    0.22409    0.54391   1.00
H3       0.98689    0.31508    0.51553   1.00
H3       0.94525    0.19624    0.52089   1.00
H3       1.03867    0.27295    0.55444   1.00
H3       1.01309    0.19995    0.55781   1.00
C4       0.91516    0.41465    0.18585   1.00
C4       0.91484    0.41535    0.14415   1.00
C3       0.95030    0.41650    0.20749   1.00
C3       0.94021    0.43965    0.12248   1.00
C3       0.88009    0.41293    0.20762   1.00
C3       0.88958    0.39096    0.12241   1.00
C2       0.91515    0.41507    0.27018   1.00
C2       0.91515    0.41507    0.05982   1.00
C3a      0.95045    0.41670    0.24901   1.00
C3       0.94029    0.43947    0.08118   1.00
C3       0.88016    0.41314    0.24889   1.00
C3a      0.88957    0.39069    0.08097   1.00
H1       0.97783    0.41748    0.19206   1.00
H1       0.95992    0.45925    0.13750   1.00
C5       0.98846    0.41850    0.27090   1.00
H1       0.96013    0.45855    0.06567   1.00
H1       0.85268    0.41209    0.26444   1.00
C5       0.86190    0.36405    0.05965   1.00
H1       0.87036    0.37098    0.13753   1.00
H1       0.85226    0.41220    0.19270   1.00
H2       0.83151    0.37297    0.06663   1.00
H2       0.86552    0.36675    0.02753   1.00
N1       0.86843    0.32344    0.07105   1.00
C6       0.86330    0.30821    0.10690   1.00
C6       0.88030    0.29436    0.04743   1.00
C6       0.87218    0.26896    0.10627   1.00
C6       0.88300    0.26016    0.06844   1.00
H3       0.85365    0.32452    0.13219   1.00
H3       0.88679    0.29776    0.01669   1.00
H3       0.87086    0.24897    0.13064   1.00
H3       0.89183    0.23196    0.05742   1.00
H2       0.98224    0.41896    0.30272   1.00
H2       1.00663    0.39232    0.26499   1.00
N1       1.01031    0.45332    0.25977   1.00
C6       1.02185    0.48469    0.28422   1.00
C6       1.02478    0.46290    0.22215   1.00
C6       1.04213    0.51168    0.26223   1.00
C6       1.04391    0.49830    0.22409   1.00
H3       1.01553    0.48689    0.31508   1.00
H3       1.02089    0.44525    0.19624   1.00
H3       1.05444    0.53867    0.27295   1.00
H3       1.05781    0.51309    0.19995   1.00
