data_IRMOF10_SG202_interpen_Ligand12cp_label_b.

_audit_creation_method             'generated by an auxiliary program of Tobunporous'

_symmetry_space_group_name_H-M     'P 1'
_symmetry_Int_Tables_number        1
_symmetry_cell_setting             triclinic

_cell_length_a                    34.2800
_cell_length_b                    34.2800
_cell_length_c                    34.2800
_cell_angle_alpha                 90.0000
_cell_angle_beta                  90.0000
_cell_angle_gamma                 90.0000

loop_
_atom_site_label
_atom_site_fract_x
_atom_site_fract_y
_atom_site_fract_z
_atom_site_occupancy
O1       0.75000    0.75000    0.75000   1.00
Zn1      0.71720    0.78280    0.78280   1.00
Zn1      0.78280    0.71720    0.78280   1.00
Zn1      0.78280    0.78280    0.71720   1.00
Zn1      0.71720    0.71720    0.71720   1.00
O2       0.72650    0.77350    0.83820   1.00
O2       0.72650    0.83820    0.77350   1.00
O2       0.66180    0.77350    0.77350   1.00
O2       0.77350    0.72650    0.83820   1.00
O2       0.83820    0.72650    0.77350   1.00
O2       0.77350    0.66180    0.77350   1.00
O2       0.77350    0.83820    0.72650   1.00
O2       0.83820    0.77350    0.72650   1.00
O2       0.77350    0.77350    0.66180   1.00
O2       0.66180    0.72650    0.72650   1.00
O2       0.72650    0.66180    0.72650   1.00
O2       0.72650    0.72650    0.66180   1.00
C1       0.75000    0.75000    0.85520   1.00
C1       0.75000    0.85520    0.75000   1.00
C1       0.64480    0.75000    0.75000   1.00
C1       0.85520    0.75000    0.75000   1.00
C1       0.75000    0.64480    0.75000   1.00
C1       0.75000    0.75000    0.64480   1.00
O1       0.25000    0.25000    0.75000   1.00
Zn1      0.21720    0.28280    0.78280   1.00
Zn1      0.28280    0.21720    0.78280   1.00
Zn1      0.28280    0.28280    0.71720   1.00
Zn1      0.21720    0.21720    0.71720   1.00
O2       0.22650    0.27350    0.83820   1.00
O2       0.22650    0.33820    0.77350   1.00
O2       0.16180    0.27350    0.77350   1.00
O2       0.27350    0.22650    0.83820   1.00
O2       0.33820    0.22650    0.77350   1.00
O2       0.27350    0.16180    0.77350   1.00
O2       0.27350    0.33820    0.72650   1.00
O2       0.33820    0.27350    0.72650   1.00
O2       0.27350    0.27350    0.66180   1.00
O2       0.16180    0.22650    0.72650   1.00
O2       0.22650    0.16180    0.72650   1.00
O2       0.22650    0.22650    0.66180   1.00
C1       0.25000    0.25000    0.85520   1.00
C1       0.25000    0.35520    0.75000   1.00
C1       0.14480    0.25000    0.75000   1.00
C1       0.35520    0.25000    0.75000   1.00
C1       0.25000    0.14480    0.75000   1.00
C1       0.25000    0.25000    0.64480   1.00
O1       0.25000    0.75000    0.25000   1.00
Zn1      0.21720    0.78280    0.28280   1.00
Zn1      0.28280    0.71720    0.28280   1.00
Zn1      0.28280    0.78280    0.21720   1.00
Zn1      0.21720    0.71720    0.21720   1.00
O2       0.22650    0.77350    0.33820   1.00
O2       0.22650    0.83820    0.27350   1.00
O2       0.16180    0.77350    0.27350   1.00
O2       0.27350    0.72650    0.33820   1.00
O2       0.33820    0.72650    0.27350   1.00
O2       0.27350    0.66180    0.27350   1.00
O2       0.27350    0.83820    0.22650   1.00
O2       0.33820    0.77350    0.22650   1.00
O2       0.27350    0.77350    0.16180   1.00
O2       0.16180    0.72650    0.22650   1.00
O2       0.22650    0.66180    0.22650   1.00
O2       0.22650    0.72650    0.16180   1.00
C1       0.25000    0.75000    0.35520   1.00
C1       0.25000    0.85520    0.25000   1.00
C1       0.14480    0.75000    0.25000   1.00
C1       0.35520    0.75000    0.25000   1.00
C1       0.25000    0.64480    0.25000   1.00
C1       0.25000    0.75000    0.14480   1.00
O1       0.75000    0.25000    0.25000   1.00
Zn1      0.71720    0.28280    0.28280   1.00
Zn1      0.78280    0.21720    0.28280   1.00
Zn1      0.78280    0.28280    0.21720   1.00
Zn1      0.71720    0.21720    0.21720   1.00
O2       0.72650    0.27350    0.33820   1.00
O2       0.72650    0.33820    0.27350   1.00
O2       0.66180    0.27350    0.27350   1.00
O2       0.77350    0.22650    0.33820   1.00
O2       0.83820    0.22650    0.27350   1.00
O2       0.77350    0.16180    0.27350   1.00
O2       0.77350    0.33820    0.22650   1.00
O2       0.83820    0.27350    0.22650   1.00
O2       0.77350    0.27350    0.16180   1.00
O2       0.66180    0.22650    0.22650   1.00
O2       0.72650    0.16180    0.22650   1.00
O2       0.72650    0.22650    0.16180   1.00
C1       0.75000    0.25000    0.35520   1.00
C1       0.75000    0.35520    0.25000   1.00
C1       0.64480    0.25000    0.25000   1.00
C1       0.85520    0.25000    0.25000   1.00
C1       0.75000    0.14480    0.25000   1.00
C1       0.75000    0.25000    0.14480   1.00
O1       0.25000    0.25000    0.25000   1.00
Zn1      0.28280    0.21720    0.21720   1.00
Zn1      0.21720    0.28280    0.21720   1.00
Zn1      0.21720    0.21720    0.28280   1.00
Zn1      0.28280    0.28280    0.28280   1.00
O2       0.27350    0.22650    0.16180   1.00
O2       0.27350    0.16180    0.22650   1.00
O2       0.33820    0.22650    0.22650   1.00
O2       0.22650    0.27350    0.16180   1.00
O2       0.16180    0.27350    0.22650   1.00
O2       0.22650    0.33820    0.22650   1.00
O2       0.22650    0.16180    0.27350   1.00
O2       0.16180    0.22650    0.27350   1.00
O2       0.22650    0.22650    0.33820   1.00
O2       0.33820    0.27350    0.27350   1.00
O2       0.27350    0.33820    0.27350   1.00
O2       0.27350    0.27350    0.33820   1.00
C1       0.25000    0.25000    0.14480   1.00
C1       0.25000    0.14480    0.25000   1.00
C1       0.35520    0.25000    0.25000   1.00
C1       0.14480    0.25000    0.25000   1.00
C1       0.25000    0.35520    0.25000   1.00
C1       0.25000    0.25000    0.35520   1.00
O1       0.75000    0.75000    0.25000   1.00
Zn1      0.78280    0.71720    0.21720   1.00
Zn1      0.71720    0.78280    0.21720   1.00
Zn1      0.71720    0.71720    0.28280   1.00
Zn1      0.78280    0.78280    0.28280   1.00
O2       0.77350    0.72650    0.16180   1.00
O2       0.77350    0.66180    0.22650   1.00
O2       0.83820    0.72650    0.22650   1.00
O2       0.72650    0.77350    0.16180   1.00
O2       0.66180    0.77350    0.22650   1.00
O2       0.72650    0.83820    0.22650   1.00
O2       0.72650    0.66180    0.27350   1.00
O2       0.66180    0.72650    0.27350   1.00
O2       0.72650    0.72650    0.33820   1.00
O2       0.83820    0.77350    0.27350   1.00
O2       0.77350    0.83820    0.27350   1.00
O2       0.77350    0.77350    0.33820   1.00
C1       0.75000    0.75000    0.14480   1.00
C1       0.75000    0.64480    0.25000   1.00
C1       0.85520    0.75000    0.25000   1.00
C1       0.64480    0.75000    0.25000   1.00
C1       0.75000    0.85520    0.25000   1.00
C1       0.75000    0.75000    0.35520   1.00
O1       0.75000    0.25000    0.75000   1.00
Zn1      0.78280    0.21720    0.71720   1.00
Zn1      0.71720    0.28280    0.71720   1.00
Zn1      0.71720    0.21720    0.78280   1.00
Zn1      0.78280    0.28280    0.78280   1.00
O2       0.77350    0.22650    0.66180   1.00
O2       0.77350    0.16180    0.72650   1.00
O2       0.83820    0.22650    0.72650   1.00
O2       0.72650    0.27350    0.66180   1.00
O2       0.66180    0.27350    0.72650   1.00
O2       0.72650    0.33820    0.72650   1.00
O2       0.72650    0.16180    0.77350   1.00
O2       0.66180    0.22650    0.77350   1.00
O2       0.72650    0.22650    0.83820   1.00
O2       0.83820    0.27350    0.77350   1.00
O2       0.77350    0.33820    0.77350   1.00
O2       0.77350    0.27350    0.83820   1.00
C1       0.75000    0.25000    0.64480   1.00
C1       0.75000    0.14480    0.75000   1.00
C1       0.85520    0.25000    0.75000   1.00
C1       0.64480    0.25000    0.75000   1.00
C1       0.75000    0.35520    0.75000   1.00
C1       0.75000    0.25000    0.85520   1.00
O1       0.25000    0.75000    0.75000   1.00
Zn1      0.28280    0.71720    0.71720   1.00
Zn1      0.21720    0.78280    0.71720   1.00
Zn1      0.21720    0.71720    0.78280   1.00
Zn1      0.28280    0.78280    0.78280   1.00
O2       0.27350    0.72650    0.66180   1.00
O2       0.27350    0.66180    0.72650   1.00
O2       0.33820    0.72650    0.72650   1.00
O2       0.22650    0.77350    0.66180   1.00
O2       0.16180    0.77350    0.72650   1.00
O2       0.22650    0.83820    0.72650   1.00
O2       0.22650    0.66180    0.77350   1.00
O2       0.16180    0.72650    0.77350   1.00
O2       0.22650    0.72650    0.83820   1.00
O2       0.33820    0.77350    0.77350   1.00
O2       0.27350    0.83820    0.77350   1.00
O2       0.27350    0.77350    0.83820   1.00
C1       0.25000    0.75000    0.64480   1.00
C1       0.25000    0.64480    0.75000   1.00
C1       0.35520    0.75000    0.75000   1.00
C1       0.14480    0.75000    0.75000   1.00
C1       0.25000    0.85520    0.75000   1.00
C1       0.25000    0.75000    0.85520   1.00
O1       0.91500    0.91500    0.91500   1.00
Zn1      0.88220    0.94780    0.94780   1.00
Zn1      0.94780    0.88220    0.94780   1.00
Zn1      0.94780    0.94780    0.88220   1.00
Zn1      0.88220    0.88220    0.88220   1.00
O2       0.89150    0.93850    1.00320   1.00
O2       0.89150    1.00320    0.93850   1.00
O2       0.82680    0.93850    0.93850   1.00
O2       0.93850    0.89150    1.00320   1.00
O2       1.00320    0.89150    0.93850   1.00
O2       0.93850    0.82680    0.93850   1.00
O2       0.93850    1.00320    0.89150   1.00
O2       1.00320    0.93850    0.89150   1.00
O2       0.93850    0.93850    0.82680   1.00
O2       0.82680    0.89150    0.89150   1.00
O2       0.89150    0.82680    0.89150   1.00
O2       0.89150    0.89150    0.82680   1.00
C1       0.91500    0.91500    1.02020   1.00
C1       0.91500    1.02020    0.91500   1.00
C1       0.80980    0.91500    0.91500   1.00
C1       1.02020    0.91500    0.91500   1.00
C1       0.91500    0.80980    0.91500   1.00
C1       0.91500    0.91500    0.80980   1.00
O1       0.41500    0.41500    0.91500   1.00
Zn1      0.38220    0.44780    0.94780   1.00
Zn1      0.44780    0.38220    0.94780   1.00
Zn1      0.44780    0.44780    0.88220   1.00
Zn1      0.38220    0.38220    0.88220   1.00
O2       0.39150    0.43850    1.00320   1.00
O2       0.39150    0.50320    0.93850   1.00
O2       0.32680    0.43850    0.93850   1.00
O2       0.43850    0.39150    1.00320   1.00
O2       0.50320    0.39150    0.93850   1.00
O2       0.43850    0.32680    0.93850   1.00
O2       0.43850    0.50320    0.89150   1.00
O2       0.50320    0.43850    0.89150   1.00
O2       0.43850    0.43850    0.82680   1.00
O2       0.32680    0.39150    0.89150   1.00
O2       0.39150    0.32680    0.89150   1.00
O2       0.39150    0.39150    0.82680   1.00
C1       0.41500    0.41500    1.02020   1.00
C1       0.41500    0.52020    0.91500   1.00
C1       0.30980    0.41500    0.91500   1.00
C1       0.52020    0.41500    0.91500   1.00
C1       0.41500    0.30980    0.91500   1.00
C1       0.41500    0.41500    0.80980   1.00
O1       0.41500    0.91500    0.41500   1.00
Zn1      0.38220    0.94780    0.44780   1.00
Zn1      0.44780    0.88220    0.44780   1.00
Zn1      0.44780    0.94780    0.38220   1.00
Zn1      0.38220    0.88220    0.38220   1.00
O2       0.39150    0.93850    0.50320   1.00
O2       0.39150    1.00320    0.43850   1.00
O2       0.32680    0.93850    0.43850   1.00
O2       0.43850    0.89150    0.50320   1.00
O2       0.50320    0.89150    0.43850   1.00
O2       0.43850    0.82680    0.43850   1.00
O2       0.43850    1.00320    0.39150   1.00
O2       0.50320    0.93850    0.39150   1.00
O2       0.43850    0.93850    0.32680   1.00
O2       0.32680    0.89150    0.39150   1.00
O2       0.39150    0.82680    0.39150   1.00
O2       0.39150    0.89150    0.32680   1.00
C1       0.41500    0.91500    0.52020   1.00
C1       0.41500    1.02020    0.41500   1.00
C1       0.30980    0.91500    0.41500   1.00
C1       0.52020    0.91500    0.41500   1.00
C1       0.41500    0.80980    0.41500   1.00
C1       0.41500    0.91500    0.30980   1.00
O1       0.91500    0.41500    0.41500   1.00
Zn1      0.88220    0.44780    0.44780   1.00
Zn1      0.94780    0.38220    0.44780   1.00
Zn1      0.94780    0.44780    0.38220   1.00
Zn1      0.88220    0.38220    0.38220   1.00
O2       0.89150    0.43850    0.50320   1.00
O2       0.89150    0.50320    0.43850   1.00
O2       0.82680    0.43850    0.43850   1.00
O2       0.93850    0.39150    0.50320   1.00
O2       1.00320    0.39150    0.43850   1.00
O2       0.93850    0.32680    0.43850   1.00
O2       0.93850    0.50320    0.39150   1.00
O2       1.00320    0.43850    0.39150   1.00
O2       0.93850    0.43850    0.32680   1.00
O2       0.82680    0.39150    0.39150   1.00
O2       0.89150    0.32680    0.39150   1.00
O2       0.89150    0.39150    0.32680   1.00
C1       0.91500    0.41500    0.52020   1.00
C1       0.91500    0.52020    0.41500   1.00
C1       0.80980    0.41500    0.41500   1.00
C1       1.02020    0.41500    0.41500   1.00
C1       0.91500    0.30980    0.41500   1.00
C1       0.91500    0.41500    0.30980   1.00
O1       0.41500    0.41500    0.41500   1.00
Zn1      0.44780    0.38220    0.38220   1.00
Zn1      0.38220    0.44780    0.38220   1.00
Zn1      0.38220    0.38220    0.44780   1.00
Zn1      0.44780    0.44780    0.44780   1.00
O2       0.43850    0.39150    0.32680   1.00
O2       0.43850    0.32680    0.39150   1.00
O2       0.50320    0.39150    0.39150   1.00
O2       0.39150    0.43850    0.32680   1.00
O2       0.32680    0.43850    0.39150   1.00
O2       0.39150    0.50320    0.39150   1.00
O2       0.39150    0.32680    0.43850   1.00
O2       0.32680    0.39150    0.43850   1.00
O2       0.39150    0.39150    0.50320   1.00
O2       0.50320    0.43850    0.43850   1.00
O2       0.43850    0.50320    0.43850   1.00
O2       0.43850    0.43850    0.50320   1.00
C1       0.41500    0.41500    0.30980   1.00
C1       0.41500    0.30980    0.41500   1.00
C1       0.52020    0.41500    0.41500   1.00
C1       0.30980    0.41500    0.41500   1.00
C1       0.41500    0.52020    0.41500   1.00
C1       0.41500    0.41500    0.52020   1.00
O1       0.91500    0.91500    0.41500   1.00
Zn1      0.94780    0.88220    0.38220   1.00
Zn1      0.88220    0.94780    0.38220   1.00
Zn1      0.88220    0.88220    0.44780   1.00
Zn1      0.94780    0.94780    0.44780   1.00
O2       0.93850    0.89150    0.32680   1.00
O2       0.93850    0.82680    0.39150   1.00
O2       1.00320    0.89150    0.39150   1.00
O2       0.89150    0.93850    0.32680   1.00
O2       0.82680    0.93850    0.39150   1.00
O2       0.89150    1.00320    0.39150   1.00
O2       0.89150    0.82680    0.43850   1.00
O2       0.82680    0.89150    0.43850   1.00
O2       0.89150    0.89150    0.50320   1.00
O2       1.00320    0.93850    0.43850   1.00
O2       0.93850    1.00320    0.43850   1.00
O2       0.93850    0.93850    0.50320   1.00
C1       0.91500    0.91500    0.30980   1.00
C1       0.91500    0.80980    0.41500   1.00
C1       1.02020    0.91500    0.41500   1.00
C1       0.80980    0.91500    0.41500   1.00
C1       0.91500    1.02020    0.41500   1.00
C1       0.91500    0.91500    0.52020   1.00
O1       0.91500    0.41500    0.91500   1.00
Zn1      0.94780    0.38220    0.88220   1.00
Zn1      0.88220    0.44780    0.88220   1.00
Zn1      0.88220    0.38220    0.94780   1.00
Zn1      0.94780    0.44780    0.94780   1.00
O2       0.93850    0.39150    0.82680   1.00
O2       0.93850    0.32680    0.89150   1.00
O2       1.00320    0.39150    0.89150   1.00
O2       0.89150    0.43850    0.82680   1.00
O2       0.82680    0.43850    0.89150   1.00
O2       0.89150    0.50320    0.89150   1.00
O2       0.89150    0.32680    0.93850   1.00
O2       0.82680    0.39150    0.93850   1.00
O2       0.89150    0.39150    1.00320   1.00
O2       1.00320    0.43850    0.93850   1.00
O2       0.93850    0.50320    0.93850   1.00
O2       0.93850    0.43850    1.00320   1.00
C1       0.91500    0.41500    0.80980   1.00
C1       0.91500    0.30980    0.91500   1.00
C1       1.02020    0.41500    0.91500   1.00
C1       0.80980    0.41500    0.91500   1.00
C1       0.91500    0.52020    0.91500   1.00
C1       0.91500    0.41500    1.02020   1.00
O1       0.41500    0.91500    0.91500   1.00
Zn1      0.44780    0.88220    0.88220   1.00
Zn1      0.38220    0.94780    0.88220   1.00
Zn1      0.38220    0.88220    0.94780   1.00
Zn1      0.44780    0.94780    0.94780   1.00
O2       0.43850    0.89150    0.82680   1.00
O2       0.43850    0.82680    0.89150   1.00
O2       0.50320    0.89150    0.89150   1.00
O2       0.39150    0.93850    0.82680   1.00
O2       0.32680    0.93850    0.89150   1.00
O2       0.39150    1.00320    0.89150   1.00
O2       0.39150    0.82680    0.93850   1.00
O2       0.32680    0.89150    0.93850   1.00
O2       0.39150    0.89150    1.00320   1.00
O2       0.50320    0.93850    0.93850   1.00
O2       0.43850    1.00320    0.93850   1.00
O2       0.43850    0.93850    1.00320   1.00
C1       0.41500    0.91500    0.80980   1.00
C1       0.41500    0.80980    0.91500   1.00
C1       0.52020    0.91500    0.91500   1.00
C1       0.30980    0.91500    0.91500   1.00
C1       0.41500    1.02020    0.91500   1.00
C1       0.41500    0.91500    1.02020   1.00
C4       0.74961    0.75067    1.02067   1.00
C4       0.75039    0.74933    0.97933   1.00
C3       0.77823    0.77143    1.04244   1.00
C3       0.78267    0.76373    0.95756   1.00
C4       0.71983    0.73067    1.04150   1.00
C4       0.71817    0.73354    0.95850   1.00
C2       0.75055    0.75030    1.10352   1.00
C2       0.75054    0.75033    0.89648   1.00
C3       0.77873    0.77082    1.08310   1.00
C3       0.78240    0.76447    0.91690   1.00
C3       0.72110    0.73088    1.08306   1.00
C3       0.71899    0.73453    0.91694   1.00
H1       0.80021    0.78930    1.02888   1.00
H1       0.80914    0.77383    0.97112   1.00
C5       0.68932    0.71152    1.02065   1.00
C5       0.68634    0.71669    0.97935   1.00
H1       0.80108    0.78665    1.09886   1.00
H1       0.80728    0.77591    0.90114   1.00
H1       0.69916    0.71664    1.10053   1.00
H1       0.69569    0.72265    0.89947   1.00
C6       0.66115    0.68454    1.04234   1.00
C6       0.64888    0.70578    0.95766   1.00
H2       0.65258    0.65957    1.02358   1.00
H2       0.67527    0.66990    1.06737   1.00
C6       0.62536    0.70708    1.05724   1.00
H2       0.62298    0.71085    0.97642   1.00
H2       0.64327    0.72533    0.93263   1.00
C6       0.65051    0.66352    0.94276   1.00
H2       0.60974    0.72155    1.03274   1.00
C6       0.59729    0.67968    1.07832   1.00
H2       0.63478    0.73060    1.07760   1.00
C6       0.61274    0.65291    0.92168   1.00
H2       0.67559    0.65992    0.92240   1.00
H2       0.65524    0.64276    0.96726   1.00
H2       0.58686    0.65647    1.05822   1.00
H2       0.61183    0.66587    1.10380   1.00
H2       0.57160    0.69632    1.08898   1.00
H2       0.58743    0.65548    0.94178   1.00
H2       0.60806    0.67241    0.89620   1.00
H2       0.61431    0.62234    0.91102   1.00
C4       0.75067    1.02067    0.74961   1.00
C4       0.74933    0.97933    0.75039   1.00
C3       0.77143    1.04244    0.77823   1.00
C3       0.76373    0.95756    0.78267   1.00
C4       0.73067    1.04150    0.71983   1.00
C4       0.73354    0.95850    0.71817   1.00
C2       0.75030    1.10352    0.75055   1.00
C2       0.75033    0.89648    0.75054   1.00
C3       0.77082    1.08310    0.77873   1.00
C3       0.76447    0.91690    0.78240   1.00
C3       0.73088    1.08306    0.72110   1.00
C3       0.73453    0.91694    0.71899   1.00
H1       0.78930    1.02888    0.80021   1.00
H1       0.77383    0.97112    0.80914   1.00
C5       0.71152    1.02065    0.68932   1.00
C5       0.71669    0.97935    0.68634   1.00
H1       0.78665    1.09886    0.80108   1.00
H1       0.77591    0.90114    0.80728   1.00
H1       0.71664    1.10053    0.69916   1.00
H1       0.72265    0.89947    0.69569   1.00
C6       0.68454    1.04234    0.66115   1.00
C6       0.70578    0.95766    0.64888   1.00
H2       0.65957    1.02358    0.65258   1.00
H2       0.66990    1.06737    0.67527   1.00
C6       0.70708    1.05724    0.62536   1.00
H2       0.71085    0.97642    0.62298   1.00
H2       0.72533    0.93263    0.64327   1.00
C6       0.66352    0.94276    0.65051   1.00
H2       0.72155    1.03274    0.60974   1.00
C6       0.67968    1.07832    0.59729   1.00
H2       0.73060    1.07760    0.63478   1.00
C6       0.65291    0.92168    0.61274   1.00
H2       0.65992    0.92240    0.67559   1.00
H2       0.64276    0.96726    0.65524   1.00
H2       0.65647    1.05822    0.58686   1.00
H2       0.66587    1.10380    0.61183   1.00
H2       0.69632    1.08898    0.57160   1.00
H2       0.65548    0.94178    0.58743   1.00
H2       0.67241    0.89620    0.60806   1.00
H2       0.62234    0.91102    0.61431   1.00
C4       0.47933    0.74961    0.74933   1.00
C4       0.52067    0.75039    0.75067   1.00
C3       0.45756    0.77823    0.72857   1.00
C3       0.54244    0.78267    0.73627   1.00
C4       0.45850    0.71983    0.76933   1.00
C4       0.54150    0.71817    0.76646   1.00
C2       0.39648    0.75055    0.74970   1.00
C2       0.60352    0.75054    0.74967   1.00
C3       0.41690    0.77873    0.72918   1.00
C3       0.58310    0.78240    0.73553   1.00
C3       0.41694    0.72110    0.76912   1.00
C3       0.58306    0.71899    0.76547   1.00
H1       0.47112    0.80021    0.71070   1.00
H1       0.52888    0.80914    0.72617   1.00
C5       0.47935    0.68932    0.78848   1.00
C5       0.52065    0.68634    0.78331   1.00
H1       0.40114    0.80108    0.71335   1.00
H1       0.59886    0.80728    0.72409   1.00
H1       0.39947    0.69916    0.78336   1.00
H1       0.60053    0.69569    0.77735   1.00
C6       0.45766    0.66115    0.81546   1.00
C6       0.54234    0.64888    0.79422   1.00
H2       0.47642    0.65258    0.84043   1.00
H2       0.43263    0.67527    0.83010   1.00
C6       0.44276    0.62536    0.79292   1.00
H2       0.52358    0.62298    0.78915   1.00
H2       0.56737    0.64327    0.77467   1.00
C6       0.55724    0.65051    0.83648   1.00
H2       0.46726    0.60974    0.77845   1.00
C6       0.42168    0.59729    0.82032   1.00
H2       0.42240    0.63478    0.76940   1.00
C6       0.57832    0.61274    0.84709   1.00
H2       0.57760    0.67559    0.84008   1.00
H2       0.53274    0.65524    0.85724   1.00
H2       0.44178    0.58686    0.84353   1.00
H2       0.39620    0.61183    0.83413   1.00
H2       0.41102    0.57160    0.80368   1.00
H2       0.55822    0.58743    0.84452   1.00
H2       0.60380    0.60806    0.82759   1.00
H2       0.58898    0.61431    0.87766   1.00
C4       1.02067    0.74961    0.75067   1.00
C4       0.97933    0.75039    0.74933   1.00
C3       1.04244    0.77823    0.77143   1.00
C3       0.95756    0.78267    0.76373   1.00
C4       1.04150    0.71983    0.73067   1.00
C4       0.95850    0.71817    0.73354   1.00
C2       1.10352    0.75055    0.75030   1.00
C2       0.89648    0.75054    0.75033   1.00
C3       1.08310    0.77873    0.77082   1.00
C3       0.91690    0.78240    0.76447   1.00
C3       1.08306    0.72110    0.73088   1.00
C3       0.91694    0.71899    0.73453   1.00
H1       1.02888    0.80021    0.78930   1.00
H1       0.97112    0.80914    0.77383   1.00
C5       1.02065    0.68932    0.71152   1.00
C5       0.97935    0.68634    0.71669   1.00
H1       1.09886    0.80108    0.78665   1.00
H1       0.90114    0.80728    0.77591   1.00
H1       1.10053    0.69916    0.71664   1.00
H1       0.89947    0.69569    0.72265   1.00
C6       1.04234    0.66115    0.68454   1.00
C6       0.95766    0.64888    0.70578   1.00
H2       1.02358    0.65258    0.65957   1.00
H2       1.06737    0.67527    0.66990   1.00
C6       1.05724    0.62536    0.70708   1.00
H2       0.97642    0.62298    0.71085   1.00
H2       0.93263    0.64327    0.72533   1.00
C6       0.94276    0.65051    0.66352   1.00
H2       1.03274    0.60974    0.72155   1.00
C6       1.07832    0.59729    0.67968   1.00
H2       1.07760    0.63478    0.73060   1.00
C6       0.92168    0.61274    0.65291   1.00
H2       0.92240    0.67559    0.65992   1.00
H2       0.96726    0.65524    0.64276   1.00
H2       1.05822    0.58686    0.65647   1.00
H2       1.10380    0.61183    0.66587   1.00
H2       1.08898    0.57160    0.69632   1.00
H2       0.94178    0.58743    0.65548   1.00
H2       0.89620    0.60806    0.67241   1.00
H2       0.91102    0.61431    0.62234   1.00
C4       0.74933    0.47933    0.74961   1.00
C4       0.75067    0.52067    0.75039   1.00
C3       0.72857    0.45756    0.77823   1.00
C3       0.73627    0.54244    0.78267   1.00
C4       0.76933    0.45850    0.71983   1.00
C4       0.76646    0.54150    0.71817   1.00
C2       0.74970    0.39648    0.75055   1.00
C2       0.74967    0.60352    0.75054   1.00
C3       0.72918    0.41690    0.77873   1.00
C3       0.73553    0.58310    0.78240   1.00
C3       0.76912    0.41694    0.72110   1.00
C3       0.76547    0.58306    0.71899   1.00
H1       0.71070    0.47112    0.80021   1.00
H1       0.72617    0.52888    0.80914   1.00
C5       0.78848    0.47935    0.68932   1.00
C5       0.78331    0.52065    0.68634   1.00
H1       0.71335    0.40114    0.80108   1.00
H1       0.72409    0.59886    0.80728   1.00
H1       0.78336    0.39947    0.69916   1.00
H1       0.77735    0.60053    0.69569   1.00
C6       0.81546    0.45766    0.66115   1.00
C6       0.79422    0.54234    0.64888   1.00
H2       0.84043    0.47642    0.65258   1.00
H2       0.83010    0.43263    0.67527   1.00
C6       0.79292    0.44276    0.62536   1.00
H2       0.78915    0.52358    0.62298   1.00
H2       0.77467    0.56737    0.64327   1.00
C6       0.83648    0.55724    0.65051   1.00
H2       0.77845    0.46726    0.60974   1.00
C6       0.82032    0.42168    0.59729   1.00
H2       0.76940    0.42240    0.63478   1.00
C6       0.84709    0.57832    0.61274   1.00
H2       0.84008    0.57760    0.67559   1.00
H2       0.85724    0.53274    0.65524   1.00
H2       0.84353    0.44178    0.58686   1.00
H2       0.83413    0.39620    0.61183   1.00
H2       0.80368    0.41102    0.57160   1.00
H2       0.84452    0.55822    0.58743   1.00
H2       0.82759    0.60380    0.60806   1.00
H2       0.87766    0.58898    0.61431   1.00
C4       0.74961    0.74933    0.47933   1.00
C4       0.75039    0.75067    0.52067   1.00
C3       0.77823    0.72857    0.45756   1.00
C3       0.78267    0.73627    0.54244   1.00
C4       0.71983    0.76933    0.45850   1.00
C4       0.71817    0.76646    0.54150   1.00
C2       0.75055    0.74970    0.39648   1.00
C2       0.75054    0.74967    0.60352   1.00
C3       0.77873    0.72918    0.41690   1.00
C3       0.78240    0.73553    0.58310   1.00
C3       0.72110    0.76912    0.41694   1.00
C3       0.71899    0.76547    0.58306   1.00
H1       0.80021    0.71070    0.47112   1.00
H1       0.80914    0.72617    0.52888   1.00
C5       0.68932    0.78848    0.47935   1.00
C5       0.68634    0.78331    0.52065   1.00
H1       0.80108    0.71335    0.40114   1.00
H1       0.80728    0.72409    0.59886   1.00
H1       0.69916    0.78336    0.39947   1.00
H1       0.69569    0.77735    0.60053   1.00
C6       0.66115    0.81546    0.45766   1.00
C6       0.64888    0.79422    0.54234   1.00
H2       0.65258    0.84043    0.47642   1.00
H2       0.67527    0.83010    0.43263   1.00
C6       0.62536    0.79292    0.44276   1.00
H2       0.62298    0.78915    0.52358   1.00
H2       0.64327    0.77467    0.56737   1.00
C6       0.65051    0.83648    0.55724   1.00
H2       0.60974    0.77845    0.46726   1.00
C6       0.59729    0.82032    0.42168   1.00
H2       0.63478    0.76940    0.42240   1.00
C6       0.61274    0.84709    0.57832   1.00
H2       0.67559    0.84008    0.57760   1.00
H2       0.65524    0.85724    0.53274   1.00
H2       0.58686    0.84353    0.44178   1.00
H2       0.61183    0.83413    0.39620   1.00
H2       0.57160    0.80368    0.41102   1.00
H2       0.58743    0.84452    0.55822   1.00
H2       0.60806    0.82759    0.60380   1.00
H2       0.61431    0.87766    0.58898   1.00
C4       0.24961    0.25067    1.02067   1.00
C4       0.25039    0.24933    0.97933   1.00
C3       0.27823    0.27143    1.04244   1.00
C3       0.28267    0.26373    0.95756   1.00
C4       0.21983    0.23067    1.04150   1.00
C4       0.21817    0.23354    0.95850   1.00
C2       0.25055    0.25030    1.10352   1.00
C2       0.25054    0.25033    0.89648   1.00
C3       0.27873    0.27082    1.08310   1.00
C3       0.28240    0.26447    0.91690   1.00
C3       0.22110    0.23088    1.08306   1.00
C3       0.21899    0.23453    0.91694   1.00
H1       0.30021    0.28930    1.02888   1.00
H1       0.30914    0.27383    0.97112   1.00
C5       0.18932    0.21152    1.02065   1.00
C5       0.18634    0.21669    0.97935   1.00
H1       0.30108    0.28665    1.09886   1.00
H1       0.30728    0.27591    0.90114   1.00
H1       0.19916    0.21664    1.10053   1.00
H1       0.19569    0.22265    0.89947   1.00
C6       0.16115    0.18454    1.04234   1.00
C6       0.14888    0.20578    0.95766   1.00
H2       0.15258    0.15957    1.02358   1.00
H2       0.17527    0.16990    1.06737   1.00
C6       0.12536    0.20708    1.05724   1.00
H2       0.12298    0.21085    0.97642   1.00
H2       0.14327    0.22533    0.93263   1.00
C6       0.15051    0.16352    0.94276   1.00
H2       0.10974    0.22155    1.03274   1.00
C6       0.09729    0.17968    1.07832   1.00
H2       0.13478    0.23060    1.07760   1.00
C6       0.11274    0.15291    0.92168   1.00
H2       0.17559    0.15992    0.92240   1.00
H2       0.15524    0.14276    0.96726   1.00
H2       0.08686    0.15647    1.05822   1.00
H2       0.11183    0.16587    1.10380   1.00
H2       0.07160    0.19632    1.08898   1.00
H2       0.08743    0.15548    0.94178   1.00
H2       0.10806    0.17241    0.89620   1.00
H2       0.11431    0.12234    0.91102   1.00
C4       0.25067    0.52067    0.74961   1.00
C4       0.24933    0.47933    0.75039   1.00
C3       0.27143    0.54244    0.77823   1.00
C3       0.26373    0.45756    0.78267   1.00
C4       0.23067    0.54150    0.71983   1.00
C4       0.23354    0.45850    0.71817   1.00
C2       0.25030    0.60352    0.75055   1.00
C2       0.25033    0.39648    0.75054   1.00
C3       0.27082    0.58310    0.77873   1.00
C3       0.26447    0.41690    0.78240   1.00
C3       0.23088    0.58306    0.72110   1.00
C3       0.23453    0.41694    0.71899   1.00
H1       0.28930    0.52888    0.80021   1.00
H1       0.27383    0.47112    0.80914   1.00
C5       0.21152    0.52065    0.68932   1.00
C5       0.21669    0.47935    0.68634   1.00
H1       0.28665    0.59886    0.80108   1.00
H1       0.27591    0.40114    0.80728   1.00
H1       0.21664    0.60053    0.69916   1.00
H1       0.22265    0.39947    0.69569   1.00
C6       0.18454    0.54234    0.66115   1.00
C6       0.20578    0.45766    0.64888   1.00
H2       0.15957    0.52358    0.65258   1.00
H2       0.16990    0.56737    0.67527   1.00
C6       0.20708    0.55724    0.62536   1.00
H2       0.21085    0.47642    0.62298   1.00
H2       0.22533    0.43263    0.64327   1.00
C6       0.16352    0.44276    0.65051   1.00
H2       0.22155    0.53274    0.60974   1.00
C6       0.17968    0.57832    0.59729   1.00
H2       0.23060    0.57760    0.63478   1.00
C6       0.15291    0.42168    0.61274   1.00
H2       0.15992    0.42240    0.67559   1.00
H2       0.14276    0.46726    0.65524   1.00
H2       0.15647    0.55822    0.58686   1.00
H2       0.16587    0.60380    0.61183   1.00
H2       0.19632    0.58898    0.57160   1.00
H2       0.15548    0.44178    0.58743   1.00
H2       0.17241    0.39620    0.60806   1.00
H2       0.12234    0.41102    0.61431   1.00
C4       -0.02067   0.24961    0.74933   1.00
C4       0.02067    0.25039    0.75067   1.00
C3       -0.04244   0.27823    0.72857   1.00
C3       0.04244    0.28267    0.73627   1.00
C4       -0.04150   0.21983    0.76933   1.00
C4       0.04150    0.21817    0.76646   1.00
C2       -0.10352   0.25055    0.74970   1.00
C2       0.10352    0.25054    0.74967   1.00
C3       -0.08310   0.27873    0.72918   1.00
C3       0.08310    0.28240    0.73553   1.00
C3       -0.08306   0.22110    0.76912   1.00
C3       0.08306    0.21899    0.76547   1.00
H1       -0.02888   0.30021    0.71070   1.00
H1       0.02888    0.30914    0.72617   1.00
C5       -0.02065   0.18932    0.78848   1.00
C5       0.02065    0.18634    0.78331   1.00
H1       -0.09886   0.30108    0.71335   1.00
H1       0.09886    0.30728    0.72409   1.00
H1       -0.10053   0.19916    0.78336   1.00
H1       0.10053    0.19569    0.77735   1.00
C6       -0.04234   0.16115    0.81546   1.00
C6       0.04234    0.14888    0.79422   1.00
H2       -0.02358   0.15258    0.84043   1.00
H2       -0.06737   0.17527    0.83010   1.00
C6       -0.05724   0.12536    0.79292   1.00
H2       0.02358    0.12298    0.78915   1.00
H2       0.06737    0.14327    0.77467   1.00
C6       0.05724    0.15051    0.83648   1.00
H2       -0.03274   0.10974    0.77845   1.00
C6       -0.07832   0.09729    0.82032   1.00
H2       -0.07760   0.13478    0.76940   1.00
C6       0.07832    0.11274    0.84709   1.00
H2       0.07760    0.17559    0.84008   1.00
H2       0.03274    0.15524    0.85724   1.00
H2       -0.05822   0.08686    0.84353   1.00
H2       -0.10380   0.11183    0.83413   1.00
H2       -0.08898   0.07160    0.80368   1.00
H2       0.05822    0.08743    0.84452   1.00
H2       0.10380    0.10806    0.82759   1.00
H2       0.08898    0.11431    0.87766   1.00
C4       0.52067    0.24961    0.75067   1.00
C4       0.47933    0.25039    0.74933   1.00
C3       0.54244    0.27823    0.77143   1.00
C3       0.45756    0.28267    0.76373   1.00
C4       0.54150    0.21983    0.73067   1.00
C4       0.45850    0.21817    0.73354   1.00
C2       0.60352    0.25055    0.75030   1.00
C2       0.39648    0.25054    0.75033   1.00
C3       0.58310    0.27873    0.77082   1.00
C3       0.41690    0.28240    0.76447   1.00
C3       0.58306    0.22110    0.73088   1.00
C3       0.41694    0.21899    0.73453   1.00
H1       0.52888    0.30021    0.78930   1.00
H1       0.47112    0.30914    0.77383   1.00
C5       0.52065    0.18932    0.71152   1.00
C5       0.47935    0.18634    0.71669   1.00
H1       0.59886    0.30108    0.78665   1.00
H1       0.40114    0.30728    0.77591   1.00
H1       0.60053    0.19916    0.71664   1.00
H1       0.39947    0.19569    0.72265   1.00
C6       0.54234    0.16115    0.68454   1.00
C6       0.45766    0.14888    0.70578   1.00
H2       0.52358    0.15258    0.65957   1.00
H2       0.56737    0.17527    0.66990   1.00
C6       0.55724    0.12536    0.70708   1.00
H2       0.47642    0.12298    0.71085   1.00
H2       0.43263    0.14327    0.72533   1.00
C6       0.44276    0.15051    0.66352   1.00
H2       0.53274    0.10974    0.72155   1.00
C6       0.57832    0.09729    0.67968   1.00
H2       0.57760    0.13478    0.73060   1.00
C6       0.42168    0.11274    0.65291   1.00
H2       0.42240    0.17559    0.65992   1.00
H2       0.46726    0.15524    0.64276   1.00
H2       0.55822    0.08686    0.65647   1.00
H2       0.60380    0.11183    0.66587   1.00
H2       0.58898    0.07160    0.69632   1.00
H2       0.44178    0.08743    0.65548   1.00
H2       0.39620    0.10806    0.67241   1.00
H2       0.41102    0.11431    0.62234   1.00
C4       0.24933    -0.02067   0.74961   1.00
C4       0.25067    0.02067    0.75039   1.00
C3       0.22857    -0.04244   0.77823   1.00
C3       0.23627    0.04244    0.78267   1.00
C4       0.26933    -0.04150   0.71983   1.00
C4       0.26646    0.04150    0.71817   1.00
C2       0.24970    -0.10352   0.75055   1.00
C2       0.24967    0.10352    0.75054   1.00
C3       0.22918    -0.08310   0.77873   1.00
C3       0.23553    0.08310    0.78240   1.00
C3       0.26912    -0.08306   0.72110   1.00
C3       0.26547    0.08306    0.71899   1.00
H1       0.21070    -0.02888   0.80021   1.00
H1       0.22617    0.02888    0.80914   1.00
C5       0.28848    -0.02065   0.68932   1.00
C5       0.28331    0.02065    0.68634   1.00
H1       0.21335    -0.09886   0.80108   1.00
H1       0.22409    0.09886    0.80728   1.00
H1       0.28336    -0.10053   0.69916   1.00
H1       0.27735    0.10053    0.69569   1.00
C6       0.31546    -0.04234   0.66115   1.00
C6       0.29422    0.04234    0.64888   1.00
H2       0.34043    -0.02358   0.65258   1.00
H2       0.33010    -0.06737   0.67527   1.00
C6       0.29292    -0.05724   0.62536   1.00
H2       0.28915    0.02358    0.62298   1.00
H2       0.27467    0.06737    0.64327   1.00
C6       0.33648    0.05724    0.65051   1.00
H2       0.27845    -0.03274   0.60974   1.00
C6       0.32032    -0.07832   0.59729   1.00
H2       0.26940    -0.07760   0.63478   1.00
C6       0.34709    0.07832    0.61274   1.00
H2       0.34008    0.07760    0.67559   1.00
H2       0.35724    0.03274    0.65524   1.00
H2       0.34353    -0.05822   0.58686   1.00
H2       0.33413    -0.10380   0.61183   1.00
H2       0.30368    -0.08898   0.57160   1.00
H2       0.34452    0.05822    0.58743   1.00
H2       0.32759    0.10380    0.60806   1.00
H2       0.37766    0.08898    0.61431   1.00
C4       0.24961    0.24933    0.47933   1.00
C4       0.25039    0.25067    0.52067   1.00
C3       0.27823    0.22857    0.45756   1.00
C3       0.28267    0.23627    0.54244   1.00
C4       0.21983    0.26933    0.45850   1.00
C4       0.21817    0.26646    0.54150   1.00
C2       0.25055    0.24970    0.39648   1.00
C2       0.25054    0.24967    0.60352   1.00
C3       0.27873    0.22918    0.41690   1.00
C3       0.28240    0.23553    0.58310   1.00
C3       0.22110    0.26912    0.41694   1.00
C3       0.21899    0.26547    0.58306   1.00
H1       0.30021    0.21070    0.47112   1.00
H1       0.30914    0.22617    0.52888   1.00
C5       0.18932    0.28848    0.47935   1.00
C5       0.18634    0.28331    0.52065   1.00
H1       0.30108    0.21335    0.40114   1.00
H1       0.30728    0.22409    0.59886   1.00
H1       0.19916    0.28336    0.39947   1.00
H1       0.19569    0.27735    0.60053   1.00
C6       0.16115    0.31546    0.45766   1.00
C6       0.14888    0.29422    0.54234   1.00
H2       0.15258    0.34043    0.47642   1.00
H2       0.17527    0.33010    0.43263   1.00
C6       0.12536    0.29292    0.44276   1.00
H2       0.12298    0.28915    0.52358   1.00
H2       0.14327    0.27467    0.56737   1.00
C6       0.15051    0.33648    0.55724   1.00
H2       0.10974    0.27845    0.46726   1.00
C6       0.09729    0.32032    0.42168   1.00
H2       0.13478    0.26940    0.42240   1.00
C6       0.11274    0.34709    0.57832   1.00
H2       0.17559    0.34008    0.57760   1.00
H2       0.15524    0.35724    0.53274   1.00
H2       0.08686    0.34353    0.44178   1.00
H2       0.11183    0.33413    0.39620   1.00
H2       0.07160    0.30368    0.41102   1.00
H2       0.08743    0.34452    0.55822   1.00
H2       0.10806    0.32759    0.60380   1.00
H2       0.11431    0.37766    0.58898   1.00
C4       0.24961    0.75067    0.52067   1.00
C4       0.25039    0.74933    0.47933   1.00
C3       0.27823    0.77143    0.54244   1.00
C3       0.28267    0.76373    0.45756   1.00
C4       0.21983    0.73067    0.54150   1.00
C4       0.21817    0.73354    0.45850   1.00
C2       0.25055    0.75030    0.60352   1.00
C2       0.25054    0.75033    0.39648   1.00
C3       0.27873    0.77082    0.58310   1.00
C3       0.28240    0.76447    0.41690   1.00
C3       0.22110    0.73088    0.58306   1.00
C3       0.21899    0.73453    0.41694   1.00
H1       0.30021    0.78930    0.52888   1.00
H1       0.30914    0.77383    0.47112   1.00
C5       0.18932    0.71152    0.52065   1.00
C5       0.18634    0.71669    0.47935   1.00
H1       0.30108    0.78665    0.59886   1.00
H1       0.30728    0.77591    0.40114   1.00
H1       0.19916    0.71664    0.60053   1.00
H1       0.19569    0.72265    0.39947   1.00
C6       0.16115    0.68454    0.54234   1.00
C6       0.14888    0.70578    0.45766   1.00
H2       0.15258    0.65957    0.52358   1.00
H2       0.17527    0.66990    0.56737   1.00
C6       0.12536    0.70708    0.55724   1.00
H2       0.12298    0.71085    0.47642   1.00
H2       0.14327    0.72533    0.43263   1.00
C6       0.15051    0.66352    0.44276   1.00
H2       0.10974    0.72155    0.53274   1.00
C6       0.09729    0.67968    0.57832   1.00
H2       0.13478    0.73060    0.57760   1.00
C6       0.11274    0.65291    0.42168   1.00
H2       0.17559    0.65992    0.42240   1.00
H2       0.15524    0.64276    0.46726   1.00
H2       0.08686    0.65647    0.55822   1.00
H2       0.11183    0.66587    0.60380   1.00
H2       0.07160    0.69632    0.58898   1.00
H2       0.08743    0.65548    0.44178   1.00
H2       0.10806    0.67241    0.39620   1.00
H2       0.11431    0.62234    0.41102   1.00
C4       0.25067    1.02067    0.24961   1.00
C4       0.24933    0.97933    0.25039   1.00
C3       0.27143    1.04244    0.27823   1.00
C3       0.26373    0.95756    0.28267   1.00
C4       0.23067    1.04150    0.21983   1.00
C4       0.23354    0.95850    0.21817   1.00
C2       0.25030    1.10352    0.25055   1.00
C2       0.25033    0.89648    0.25054   1.00
C3       0.27082    1.08310    0.27873   1.00
C3       0.26447    0.91690    0.28240   1.00
C3       0.23088    1.08306    0.22110   1.00
C3       0.23453    0.91694    0.21899   1.00
H1       0.28930    1.02888    0.30021   1.00
H1       0.27383    0.97112    0.30914   1.00
C5       0.21152    1.02065    0.18932   1.00
C5       0.21669    0.97935    0.18634   1.00
H1       0.28665    1.09886    0.30108   1.00
H1       0.27591    0.90114    0.30728   1.00
H1       0.21664    1.10053    0.19916   1.00
H1       0.22265    0.89947    0.19569   1.00
C6       0.18454    1.04234    0.16115   1.00
C6       0.20578    0.95766    0.14888   1.00
H2       0.15957    1.02358    0.15258   1.00
H2       0.16990    1.06737    0.17527   1.00
C6       0.20708    1.05724    0.12536   1.00
H2       0.21085    0.97642    0.12298   1.00
H2       0.22533    0.93263    0.14327   1.00
C6       0.16352    0.94276    0.15051   1.00
H2       0.22155    1.03274    0.10974   1.00
C6       0.17968    1.07832    0.09729   1.00
H2       0.23060    1.07760    0.13478   1.00
C6       0.15291    0.92168    0.11274   1.00
H2       0.15992    0.92240    0.17559   1.00
H2       0.14276    0.96726    0.15524   1.00
H2       0.15647    1.05822    0.08686   1.00
H2       0.16587    1.10380    0.11183   1.00
H2       0.19632    1.08898    0.07160   1.00
H2       0.15548    0.94178    0.08743   1.00
H2       0.17241    0.89620    0.10806   1.00
H2       0.12234    0.91102    0.11431   1.00
C4       -0.02067   0.74961    0.24933   1.00
C4       0.02067    0.75039    0.25067   1.00
C3       -0.04244   0.77823    0.22857   1.00
C3       0.04244    0.78267    0.23627   1.00
C4       -0.04150   0.71983    0.26933   1.00
C4       0.04150    0.71817    0.26646   1.00
C2       -0.10352   0.75055    0.24970   1.00
C2       0.10352    0.75054    0.24967   1.00
C3       -0.08310   0.77873    0.22918   1.00
C3       0.08310    0.78240    0.23553   1.00
C3       -0.08306   0.72110    0.26912   1.00
C3       0.08306    0.71899    0.26547   1.00
H1       -0.02888   0.80021    0.21070   1.00
H1       0.02888    0.80914    0.22617   1.00
C5       -0.02065   0.68932    0.28848   1.00
C5       0.02065    0.68634    0.28331   1.00
H1       -0.09886   0.80108    0.21335   1.00
H1       0.09886    0.80728    0.22409   1.00
H1       -0.10053   0.69916    0.28336   1.00
H1       0.10053    0.69569    0.27735   1.00
C6       -0.04234   0.66115    0.31546   1.00
C6       0.04234    0.64888    0.29422   1.00
H2       -0.02358   0.65258    0.34043   1.00
H2       -0.06737   0.67527    0.33010   1.00
C6       -0.05724   0.62536    0.29292   1.00
H2       0.02358    0.62298    0.28915   1.00
H2       0.06737    0.64327    0.27467   1.00
C6       0.05724    0.65051    0.33648   1.00
H2       -0.03274   0.60974    0.27845   1.00
C6       -0.07832   0.59729    0.32032   1.00
H2       -0.07760   0.63478    0.26940   1.00
C6       0.07832    0.61274    0.34709   1.00
H2       0.07760    0.67559    0.34008   1.00
H2       0.03274    0.65524    0.35724   1.00
H2       -0.05822   0.58686    0.34353   1.00
H2       -0.10380   0.61183    0.33413   1.00
H2       -0.08898   0.57160    0.30368   1.00
H2       0.05822    0.58743    0.34452   1.00
H2       0.10380    0.60806    0.32759   1.00
H2       0.08898    0.61431    0.37766   1.00
C4       0.52067    0.74961    0.25067   1.00
C4       0.47933    0.75039    0.24933   1.00
C3       0.54244    0.77823    0.27143   1.00
C3       0.45756    0.78267    0.26373   1.00
C4       0.54150    0.71983    0.23067   1.00
C4       0.45850    0.71817    0.23354   1.00
C2       0.60352    0.75055    0.25030   1.00
C2       0.39648    0.75054    0.25033   1.00
C3       0.58310    0.77873    0.27082   1.00
C3       0.41690    0.78240    0.26447   1.00
C3       0.58306    0.72110    0.23088   1.00
C3       0.41694    0.71899    0.23453   1.00
H1       0.52888    0.80021    0.28930   1.00
H1       0.47112    0.80914    0.27383   1.00
C5       0.52065    0.68932    0.21152   1.00
C5       0.47935    0.68634    0.21669   1.00
H1       0.59886    0.80108    0.28665   1.00
H1       0.40114    0.80728    0.27591   1.00
H1       0.60053    0.69916    0.21664   1.00
H1       0.39947    0.69569    0.22265   1.00
C6       0.54234    0.66115    0.18454   1.00
C6       0.45766    0.64888    0.20578   1.00
H2       0.52358    0.65258    0.15957   1.00
H2       0.56737    0.67527    0.16990   1.00
C6       0.55724    0.62536    0.20708   1.00
H2       0.47642    0.62298    0.21085   1.00
H2       0.43263    0.64327    0.22533   1.00
C6       0.44276    0.65051    0.16352   1.00
H2       0.53274    0.60974    0.22155   1.00
C6       0.57832    0.59729    0.17968   1.00
H2       0.57760    0.63478    0.23060   1.00
C6       0.42168    0.61274    0.15291   1.00
H2       0.42240    0.67559    0.15992   1.00
H2       0.46726    0.65524    0.14276   1.00
H2       0.55822    0.58686    0.15647   1.00
H2       0.60380    0.61183    0.16587   1.00
H2       0.58898    0.57160    0.19632   1.00
H2       0.44178    0.58743    0.15548   1.00
H2       0.39620    0.60806    0.17241   1.00
H2       0.41102    0.61431    0.12234   1.00
C4       0.24933    0.47933    0.24961   1.00
C4       0.25067    0.52067    0.25039   1.00
C3       0.22857    0.45756    0.27823   1.00
C3       0.23627    0.54244    0.28267   1.00
C4       0.26933    0.45850    0.21983   1.00
C4       0.26646    0.54150    0.21817   1.00
C2       0.24970    0.39648    0.25055   1.00
C2       0.24967    0.60352    0.25054   1.00
C3       0.22918    0.41690    0.27873   1.00
C3       0.23553    0.58310    0.28240   1.00
C3       0.26912    0.41694    0.22110   1.00
C3       0.26547    0.58306    0.21899   1.00
H1       0.21070    0.47112    0.30021   1.00
H1       0.22617    0.52888    0.30914   1.00
C5       0.28848    0.47935    0.18932   1.00
C5       0.28331    0.52065    0.18634   1.00
H1       0.21335    0.40114    0.30108   1.00
H1       0.22409    0.59886    0.30728   1.00
H1       0.28336    0.39947    0.19916   1.00
H1       0.27735    0.60053    0.19569   1.00
C6       0.31546    0.45766    0.16115   1.00
C6       0.29422    0.54234    0.14888   1.00
H2       0.34043    0.47642    0.15258   1.00
H2       0.33010    0.43263    0.17527   1.00
C6       0.29292    0.44276    0.12536   1.00
H2       0.28915    0.52358    0.12298   1.00
H2       0.27467    0.56737    0.14327   1.00
C6       0.33648    0.55724    0.15051   1.00
H2       0.27845    0.46726    0.10974   1.00
C6       0.32032    0.42168    0.09729   1.00
H2       0.26940    0.42240    0.13478   1.00
C6       0.34709    0.57832    0.11274   1.00
H2       0.34008    0.57760    0.17559   1.00
H2       0.35724    0.53274    0.15524   1.00
H2       0.34353    0.44178    0.08686   1.00
H2       0.33413    0.39620    0.11183   1.00
H2       0.30368    0.41102    0.07160   1.00
H2       0.34452    0.55822    0.08743   1.00
H2       0.32759    0.60380    0.10806   1.00
H2       0.37766    0.58898    0.11431   1.00
C4       0.24961    0.74933    -0.02067   1.00
C4       0.25039    0.75067    0.02067   1.00
C3       0.27823    0.72857    -0.04244   1.00
C3       0.28267    0.73627    0.04244   1.00
C4       0.21983    0.76933    -0.04150   1.00
C4       0.21817    0.76646    0.04150   1.00
C2       0.25055    0.74970    -0.10352   1.00
C2       0.25054    0.74967    0.10352   1.00
C3       0.27873    0.72918    -0.08310   1.00
C3       0.28240    0.73553    0.08310   1.00
C3       0.22110    0.76912    -0.08306   1.00
C3       0.21899    0.76547    0.08306   1.00
H1       0.30021    0.71070    -0.02888   1.00
H1       0.30914    0.72617    0.02888   1.00
C5       0.18932    0.78848    -0.02065   1.00
C5       0.18634    0.78331    0.02065   1.00
H1       0.30108    0.71335    -0.09886   1.00
H1       0.30728    0.72409    0.09886   1.00
H1       0.19916    0.78336    -0.10053   1.00
H1       0.19569    0.77735    0.10053   1.00
C6       0.16115    0.81546    -0.04234   1.00
C6       0.14888    0.79422    0.04234   1.00
H2       0.15258    0.84043    -0.02358   1.00
H2       0.17527    0.83010    -0.06737   1.00
C6       0.12536    0.79292    -0.05724   1.00
H2       0.12298    0.78915    0.02358   1.00
H2       0.14327    0.77467    0.06737   1.00
C6       0.15051    0.83648    0.05724   1.00
H2       0.10974    0.77845    -0.03274   1.00
C6       0.09729    0.82032    -0.07832   1.00
H2       0.13478    0.76940    -0.07760   1.00
C6       0.11274    0.84709    0.07832   1.00
H2       0.17559    0.84008    0.07760   1.00
H2       0.15524    0.85724    0.03274   1.00
H2       0.08686    0.84353    -0.05822   1.00
H2       0.11183    0.83413    -0.10380   1.00
H2       0.07160    0.80368    -0.08898   1.00
H2       0.08743    0.84452    0.05822   1.00
H2       0.10806    0.82759    0.10380   1.00
H2       0.11431    0.87766    0.08898   1.00
C4       0.74961    0.25067    0.52067   1.00
C4       0.75039    0.24933    0.47933   1.00
C3       0.77823    0.27143    0.54244   1.00
C3       0.78267    0.26373    0.45756   1.00
C4       0.71983    0.23067    0.54150   1.00
C4       0.71817    0.23354    0.45850   1.00
C2       0.75055    0.25030    0.60352   1.00
C2       0.75054    0.25033    0.39648   1.00
C3       0.77873    0.27082    0.58310   1.00
C3       0.78240    0.26447    0.41690   1.00
C3       0.72110    0.23088    0.58306   1.00
C3       0.71899    0.23453    0.41694   1.00
H1       0.80021    0.28930    0.52888   1.00
H1       0.80914    0.27383    0.47112   1.00
C5       0.68932    0.21152    0.52065   1.00
C5       0.68634    0.21669    0.47935   1.00
H1       0.80108    0.28665    0.59886   1.00
H1       0.80728    0.27591    0.40114   1.00
H1       0.69916    0.21664    0.60053   1.00
H1       0.69569    0.22265    0.39947   1.00
C6       0.66115    0.18454    0.54234   1.00
C6       0.64888    0.20578    0.45766   1.00
H2       0.65258    0.15957    0.52358   1.00
H2       0.67527    0.16990    0.56737   1.00
C6       0.62536    0.20708    0.55724   1.00
H2       0.62298    0.21085    0.47642   1.00
H2       0.64327    0.22533    0.43263   1.00
C6       0.65051    0.16352    0.44276   1.00
H2       0.60974    0.22155    0.53274   1.00
C6       0.59729    0.17968    0.57832   1.00
H2       0.63478    0.23060    0.57760   1.00
C6       0.61274    0.15291    0.42168   1.00
H2       0.67559    0.15992    0.42240   1.00
H2       0.65524    0.14276    0.46726   1.00
H2       0.58686    0.15647    0.55822   1.00
H2       0.61183    0.16587    0.60380   1.00
H2       0.57160    0.19632    0.58898   1.00
H2       0.58743    0.15548    0.44178   1.00
H2       0.60806    0.17241    0.39620   1.00
H2       0.61431    0.12234    0.41102   1.00
C4       0.75067    0.52067    0.24961   1.00
C4       0.74933    0.47933    0.25039   1.00
C3       0.77143    0.54244    0.27823   1.00
C3       0.76373    0.45756    0.28267   1.00
C4       0.73067    0.54150    0.21983   1.00
C4       0.73354    0.45850    0.21817   1.00
C2       0.75030    0.60352    0.25055   1.00
C2       0.75033    0.39648    0.25054   1.00
C3       0.77082    0.58310    0.27873   1.00
C3       0.76447    0.41690    0.28240   1.00
C3       0.73088    0.58306    0.22110   1.00
C3       0.73453    0.41694    0.21899   1.00
H1       0.78930    0.52888    0.30021   1.00
H1       0.77383    0.47112    0.30914   1.00
C5       0.71152    0.52065    0.18932   1.00
C5       0.71669    0.47935    0.18634   1.00
H1       0.78665    0.59886    0.30108   1.00
H1       0.77591    0.40114    0.30728   1.00
H1       0.71664    0.60053    0.19916   1.00
H1       0.72265    0.39947    0.19569   1.00
C6       0.68454    0.54234    0.16115   1.00
C6       0.70578    0.45766    0.14888   1.00
H2       0.65957    0.52358    0.15258   1.00
H2       0.66990    0.56737    0.17527   1.00
C6       0.70708    0.55724    0.12536   1.00
H2       0.71085    0.47642    0.12298   1.00
H2       0.72533    0.43263    0.14327   1.00
C6       0.66352    0.44276    0.15051   1.00
H2       0.72155    0.53274    0.10974   1.00
C6       0.67968    0.57832    0.09729   1.00
H2       0.73060    0.57760    0.13478   1.00
C6       0.65291    0.42168    0.11274   1.00
H2       0.65992    0.42240    0.17559   1.00
H2       0.64276    0.46726    0.15524   1.00
H2       0.65647    0.55822    0.08686   1.00
H2       0.66587    0.60380    0.11183   1.00
H2       0.69632    0.58898    0.07160   1.00
H2       0.65548    0.44178    0.08743   1.00
H2       0.67241    0.39620    0.10806   1.00
H2       0.62234    0.41102    0.11431   1.00
C4       0.47933    0.24961    0.24933   1.00
C4       0.52067    0.25039    0.25067   1.00
C3       0.45756    0.27823    0.22857   1.00
C3       0.54244    0.28267    0.23627   1.00
C4       0.45850    0.21983    0.26933   1.00
C4       0.54150    0.21817    0.26646   1.00
C2       0.39648    0.25055    0.24970   1.00
C2       0.60352    0.25054    0.24967   1.00
C3       0.41690    0.27873    0.22918   1.00
C3       0.58310    0.28240    0.23553   1.00
C3       0.41694    0.22110    0.26912   1.00
C3       0.58306    0.21899    0.26547   1.00
H1       0.47112    0.30021    0.21070   1.00
H1       0.52888    0.30914    0.22617   1.00
C5       0.47935    0.18932    0.28848   1.00
C5       0.52065    0.18634    0.28331   1.00
H1       0.40114    0.30108    0.21335   1.00
H1       0.59886    0.30728    0.22409   1.00
H1       0.39947    0.19916    0.28336   1.00
H1       0.60053    0.19569    0.27735   1.00
C6       0.45766    0.16115    0.31546   1.00
C6       0.54234    0.14888    0.29422   1.00
H2       0.47642    0.15258    0.34043   1.00
H2       0.43263    0.17527    0.33010   1.00
C6       0.44276    0.12536    0.29292   1.00
H2       0.52358    0.12298    0.28915   1.00
H2       0.56737    0.14327    0.27467   1.00
C6       0.55724    0.15051    0.33648   1.00
H2       0.46726    0.10974    0.27845   1.00
C6       0.42168    0.09729    0.32032   1.00
H2       0.42240    0.13478    0.26940   1.00
C6       0.57832    0.11274    0.34709   1.00
H2       0.57760    0.17559    0.34008   1.00
H2       0.53274    0.15524    0.35724   1.00
H2       0.44178    0.08686    0.34353   1.00
H2       0.39620    0.11183    0.33413   1.00
H2       0.41102    0.07160    0.30368   1.00
H2       0.55822    0.08743    0.34452   1.00
H2       0.60380    0.10806    0.32759   1.00
H2       0.58898    0.11431    0.37766   1.00
C4       1.02067    0.24961    0.25067   1.00
C4       0.97933    0.25039    0.24933   1.00
C3       1.04244    0.27823    0.27143   1.00
C3       0.95756    0.28267    0.26373   1.00
C4       1.04150    0.21983    0.23067   1.00
C4       0.95850    0.21817    0.23354   1.00
C2       1.10352    0.25055    0.25030   1.00
C2       0.89648    0.25054    0.25033   1.00
C3       1.08310    0.27873    0.27082   1.00
C3       0.91690    0.28240    0.26447   1.00
C3       1.08306    0.22110    0.23088   1.00
C3       0.91694    0.21899    0.23453   1.00
H1       1.02888    0.30021    0.28930   1.00
H1       0.97112    0.30914    0.27383   1.00
C5       1.02065    0.18932    0.21152   1.00
C5       0.97935    0.18634    0.21669   1.00
H1       1.09886    0.30108    0.28665   1.00
H1       0.90114    0.30728    0.27591   1.00
H1       1.10053    0.19916    0.21664   1.00
H1       0.89947    0.19569    0.22265   1.00
C6       1.04234    0.16115    0.18454   1.00
C6       0.95766    0.14888    0.20578   1.00
H2       1.02358    0.15258    0.15957   1.00
H2       1.06737    0.17527    0.16990   1.00
C6       1.05724    0.12536    0.20708   1.00
H2       0.97642    0.12298    0.21085   1.00
H2       0.93263    0.14327    0.22533   1.00
C6       0.94276    0.15051    0.16352   1.00
H2       1.03274    0.10974    0.22155   1.00
C6       1.07832    0.09729    0.17968   1.00
H2       1.07760    0.13478    0.23060   1.00
C6       0.92168    0.11274    0.15291   1.00
H2       0.92240    0.17559    0.15992   1.00
H2       0.96726    0.15524    0.14276   1.00
H2       1.05822    0.08686    0.15647   1.00
H2       1.10380    0.11183    0.16587   1.00
H2       1.08898    0.07160    0.19632   1.00
H2       0.94178    0.08743    0.15548   1.00
H2       0.89620    0.10806    0.17241   1.00
H2       0.91102    0.11431    0.12234   1.00
C4       0.74933    -0.02067   0.24961   1.00
C4       0.75067    0.02067    0.25039   1.00
C3       0.72857    -0.04244   0.27823   1.00
C3       0.73627    0.04244    0.28267   1.00
C4       0.76933    -0.04150   0.21983   1.00
C4       0.76646    0.04150    0.21817   1.00
C2       0.74970    -0.10352   0.25055   1.00
C2       0.74967    0.10352    0.25054   1.00
C3       0.72918    -0.08310   0.27873   1.00
C3       0.73553    0.08310    0.28240   1.00
C3       0.76912    -0.08306   0.22110   1.00
C3       0.76547    0.08306    0.21899   1.00
H1       0.71070    -0.02888   0.30021   1.00
H1       0.72617    0.02888    0.30914   1.00
C5       0.78848    -0.02065   0.18932   1.00
C5       0.78331    0.02065    0.18634   1.00
H1       0.71335    -0.09886   0.30108   1.00
H1       0.72409    0.09886    0.30728   1.00
H1       0.78336    -0.10053   0.19916   1.00
H1       0.77735    0.10053    0.19569   1.00
C6       0.81546    -0.04234   0.16115   1.00
C6       0.79422    0.04234    0.14888   1.00
H2       0.84043    -0.02358   0.15258   1.00
H2       0.83010    -0.06737   0.17527   1.00
C6       0.79292    -0.05724   0.12536   1.00
H2       0.78915    0.02358    0.12298   1.00
H2       0.77467    0.06737    0.14327   1.00
C6       0.83648    0.05724    0.15051   1.00
H2       0.77845    -0.03274   0.10974   1.00
C6       0.82032    -0.07832   0.09729   1.00
H2       0.76940    -0.07760   0.13478   1.00
C6       0.84709    0.07832    0.11274   1.00
H2       0.84008    0.07760    0.17559   1.00
H2       0.85724    0.03274    0.15524   1.00
H2       0.84353    -0.05822   0.08686   1.00
H2       0.83413    -0.10380   0.11183   1.00
H2       0.80368    -0.08898   0.07160   1.00
H2       0.84452    0.05822    0.08743   1.00
H2       0.82759    0.10380    0.10806   1.00
H2       0.87766    0.08898    0.11431   1.00
C4       0.74961    0.24933    -0.02067   1.00
C4       0.75039    0.25067    0.02067   1.00
C3       0.77823    0.22857    -0.04244   1.00
C3       0.78267    0.23627    0.04244   1.00
C4       0.71983    0.26933    -0.04150   1.00
C4       0.71817    0.26646    0.04150   1.00
C2       0.75055    0.24970    -0.10352   1.00
C2       0.75054    0.24967    0.10352   1.00
C3       0.77873    0.22918    -0.08310   1.00
C3       0.78240    0.23553    0.08310   1.00
C3       0.72110    0.26912    -0.08306   1.00
C3       0.71899    0.26547    0.08306   1.00
H1       0.80021    0.21070    -0.02888   1.00
H1       0.80914    0.22617    0.02888   1.00
C5       0.68932    0.28848    -0.02065   1.00
C5       0.68634    0.28331    0.02065   1.00
H1       0.80108    0.21335    -0.09886   1.00
H1       0.80728    0.22409    0.09886   1.00
H1       0.69916    0.28336    -0.10053   1.00
H1       0.69569    0.27735    0.10053   1.00
C6       0.66115    0.31546    -0.04234   1.00
C6       0.64888    0.29422    0.04234   1.00
H2       0.65258    0.34043    -0.02358   1.00
H2       0.67527    0.33010    -0.06737   1.00
C6       0.62536    0.29292    -0.05724   1.00
H2       0.62298    0.28915    0.02358   1.00
H2       0.64327    0.27467    0.06737   1.00
C6       0.65051    0.33648    0.05724   1.00
H2       0.60974    0.27845    -0.03274   1.00
C6       0.59729    0.32032    -0.07832   1.00
H2       0.63478    0.26940    -0.07760   1.00
C6       0.61274    0.34709    0.07832   1.00
H2       0.67559    0.34008    0.07760   1.00
H2       0.65524    0.35724    0.03274   1.00
H2       0.58686    0.34353    -0.05822   1.00
H2       0.61183    0.33413    -0.10380   1.00
H2       0.57160    0.30368    -0.08898   1.00
H2       0.58743    0.34452    0.05822   1.00
H2       0.60806    0.32759    0.10380   1.00
H2       0.61431    0.37766    0.08898   1.00
C4       0.91461    0.91567    1.18567   1.00
C4       0.91539    0.91433    1.14433   1.00
C3       0.94323    0.93643    1.20744   1.00
C3       0.94767    0.92873    1.12256   1.00
C4       0.88483    0.89567    1.20650   1.00
C4       0.88317    0.89854    1.12350   1.00
C2       0.91555    0.91530    1.26852   1.00
C2       0.91554    0.91533    1.06148   1.00
C3       0.94373    0.93582    1.24810   1.00
C3       0.94740    0.92947    1.08190   1.00
C3       0.88610    0.89588    1.24806   1.00
C3       0.88399    0.89953    1.08194   1.00
H1       0.96521    0.95430    1.19388   1.00
H1       0.97414    0.93883    1.13612   1.00
C5       0.85432    0.87652    1.18565   1.00
C5       0.85134    0.88169    1.14435   1.00
H1       0.96608    0.95165    1.26386   1.00
H1       0.97228    0.94091    1.06614   1.00
H1       0.86416    0.88164    1.26553   1.00
H1       0.86069    0.88765    1.06447   1.00
C6       0.82615    0.84954    1.20734   1.00
C6       0.81388    0.87078    1.12266   1.00
H2       0.81758    0.82457    1.18858   1.00
H2       0.84027    0.83490    1.23237   1.00
C6       0.79036    0.87208    1.22224   1.00
H2       0.78798    0.87585    1.14142   1.00
H2       0.80827    0.89033    1.09763   1.00
C6       0.81551    0.82852    1.10776   1.00
H2       0.77474    0.88655    1.19774   1.00
C6       0.76229    0.84468    1.24332   1.00
H2       0.79978    0.89560    1.24260   1.00
C6       0.77774    0.81791    1.08668   1.00
H2       0.84059    0.82492    1.08740   1.00
H2       0.82024    0.80776    1.13226   1.00
H2       0.75186    0.82147    1.22322   1.00
H2       0.77683    0.83087    1.26880   1.00
H2       0.73660    0.86132    1.25398   1.00
H2       0.75243    0.82048    1.10678   1.00
H2       0.77306    0.83741    1.06120   1.00
H2       0.77931    0.78734    1.07602   1.00
C4       0.91567    1.18567    0.91461   1.00
C4       0.91433    1.14433    0.91539   1.00
C3       0.93643    1.20744    0.94323   1.00
C3       0.92873    1.12256    0.94767   1.00
C4       0.89567    1.20650    0.88483   1.00
C4       0.89854    1.12350    0.88317   1.00
C2       0.91530    1.26852    0.91555   1.00
C2       0.91533    1.06148    0.91554   1.00
C3       0.93582    1.24810    0.94373   1.00
C3       0.92947    1.08190    0.94740   1.00
C3       0.89588    1.24806    0.88610   1.00
C3       0.89953    1.08194    0.88399   1.00
H1       0.95430    1.19388    0.96521   1.00
H1       0.93883    1.13612    0.97414   1.00
C5       0.87652    1.18565    0.85432   1.00
C5       0.88169    1.14435    0.85134   1.00
H1       0.95165    1.26386    0.96608   1.00
H1       0.94091    1.06614    0.97228   1.00
H1       0.88164    1.26553    0.86416   1.00
H1       0.88765    1.06447    0.86069   1.00
C6       0.84954    1.20734    0.82615   1.00
C6       0.87078    1.12266    0.81388   1.00
H2       0.82457    1.18858    0.81758   1.00
H2       0.83490    1.23237    0.84027   1.00
C6       0.87208    1.22224    0.79036   1.00
H2       0.87585    1.14142    0.78798   1.00
H2       0.89033    1.09763    0.80827   1.00
C6       0.82852    1.10776    0.81551   1.00
H2       0.88655    1.19774    0.77474   1.00
C6       0.84468    1.24332    0.76229   1.00
H2       0.89560    1.24260    0.79978   1.00
C6       0.81791    1.08668    0.77774   1.00
H2       0.82492    1.08740    0.84059   1.00
H2       0.80776    1.13226    0.82024   1.00
H2       0.82147    1.22322    0.75186   1.00
H2       0.83087    1.26880    0.77683   1.00
H2       0.86132    1.25398    0.73660   1.00
H2       0.82048    1.10678    0.75243   1.00
H2       0.83741    1.06120    0.77306   1.00
H2       0.78734    1.07602    0.77931   1.00
C4       0.64433    0.91461    0.91433   1.00
C4       0.68567    0.91539    0.91567   1.00
C3       0.62256    0.94323    0.89357   1.00
C3       0.70744    0.94767    0.90127   1.00
C4       0.62350    0.88483    0.93433   1.00
C4       0.70650    0.88317    0.93146   1.00
C2       0.56148    0.91555    0.91470   1.00
C2       0.76852    0.91554    0.91467   1.00
C3       0.58190    0.94373    0.89418   1.00
C3       0.74810    0.94740    0.90053   1.00
C3       0.58194    0.88610    0.93412   1.00
C3       0.74806    0.88399    0.93047   1.00
H1       0.63612    0.96521    0.87570   1.00
H1       0.69388    0.97414    0.89117   1.00
C5       0.64435    0.85432    0.95348   1.00
C5       0.68565    0.85134    0.94831   1.00
H1       0.56614    0.96608    0.87835   1.00
H1       0.76386    0.97228    0.88909   1.00
H1       0.56447    0.86416    0.94836   1.00
H1       0.76553    0.86069    0.94235   1.00
C6       0.62266    0.82615    0.98046   1.00
C6       0.70734    0.81388    0.95922   1.00
H2       0.64142    0.81758    1.00543   1.00
H2       0.59763    0.84027    0.99510   1.00
C6       0.60776    0.79036    0.95792   1.00
H2       0.68858    0.78798    0.95415   1.00
H2       0.73237    0.80827    0.93967   1.00
C6       0.72224    0.81551    1.00148   1.00
H2       0.63226    0.77474    0.94345   1.00
C6       0.58668    0.76229    0.98532   1.00
H2       0.58740    0.79978    0.93440   1.00
C6       0.74332    0.77774    1.01209   1.00
H2       0.74260    0.84059    1.00508   1.00
H2       0.69774    0.82024    1.02224   1.00
H2       0.60678    0.75186    1.00853   1.00
H2       0.56120    0.77683    0.99913   1.00
H2       0.57602    0.73660    0.96868   1.00
H2       0.72322    0.75243    1.00952   1.00
H2       0.76880    0.77306    0.99259   1.00
H2       0.75398    0.77931    1.04266   1.00
C4       1.18567    0.91461    0.91567   1.00
C4       1.14433    0.91539    0.91433   1.00
C3       1.20744    0.94323    0.93643   1.00
C3       1.12256    0.94767    0.92873   1.00
C4       1.20650    0.88483    0.89567   1.00
C4       1.12350    0.88317    0.89854   1.00
C2       1.26852    0.91555    0.91530   1.00
C2       1.06148    0.91554    0.91533   1.00
C3       1.24810    0.94373    0.93582   1.00
C3       1.08190    0.94740    0.92947   1.00
C3       1.24806    0.88610    0.89588   1.00
C3       1.08194    0.88399    0.89953   1.00
H1       1.19388    0.96521    0.95430   1.00
H1       1.13612    0.97414    0.93883   1.00
C5       1.18565    0.85432    0.87652   1.00
C5       1.14435    0.85134    0.88169   1.00
H1       1.26386    0.96608    0.95165   1.00
H1       1.06614    0.97228    0.94091   1.00
H1       1.26553    0.86416    0.88164   1.00
H1       1.06447    0.86069    0.88765   1.00
C6       1.20734    0.82615    0.84954   1.00
C6       1.12266    0.81388    0.87078   1.00
H2       1.18858    0.81758    0.82457   1.00
H2       1.23237    0.84027    0.83490   1.00
C6       1.22224    0.79036    0.87208   1.00
H2       1.14142    0.78798    0.87585   1.00
H2       1.09763    0.80827    0.89033   1.00
C6       1.10776    0.81551    0.82852   1.00
H2       1.19774    0.77474    0.88655   1.00
C6       1.24332    0.76229    0.84468   1.00
H2       1.24260    0.79978    0.89560   1.00
C6       1.08668    0.77774    0.81791   1.00
H2       1.08740    0.84059    0.82492   1.00
H2       1.13226    0.82024    0.80776   1.00
H2       1.22322    0.75186    0.82147   1.00
H2       1.26880    0.77683    0.83087   1.00
H2       1.25398    0.73660    0.86132   1.00
H2       1.10678    0.75243    0.82048   1.00
H2       1.06120    0.77306    0.83741   1.00
H2       1.07602    0.77931    0.78734   1.00
C4       0.91433    0.64433    0.91461   1.00
C4       0.91567    0.68567    0.91539   1.00
C3       0.89357    0.62256    0.94323   1.00
C3       0.90127    0.70744    0.94767   1.00
C4       0.93433    0.62350    0.88483   1.00
C4       0.93146    0.70650    0.88317   1.00
C2       0.91470    0.56148    0.91555   1.00
C2       0.91467    0.76852    0.91554   1.00
C3       0.89418    0.58190    0.94373   1.00
C3       0.90053    0.74810    0.94740   1.00
C3       0.93412    0.58194    0.88610   1.00
C3       0.93047    0.74806    0.88399   1.00
H1       0.87570    0.63612    0.96521   1.00
H1       0.89117    0.69388    0.97414   1.00
C5       0.95348    0.64435    0.85432   1.00
C5       0.94831    0.68565    0.85134   1.00
H1       0.87835    0.56614    0.96608   1.00
H1       0.88909    0.76386    0.97228   1.00
H1       0.94836    0.56447    0.86416   1.00
H1       0.94235    0.76553    0.86069   1.00
C6       0.98046    0.62266    0.82615   1.00
C6       0.95922    0.70734    0.81388   1.00
H2       1.00543    0.64142    0.81758   1.00
H2       0.99510    0.59763    0.84027   1.00
C6       0.95792    0.60776    0.79036   1.00
H2       0.95415    0.68858    0.78798   1.00
H2       0.93967    0.73237    0.80827   1.00
C6       1.00148    0.72224    0.81551   1.00
H2       0.94345    0.63226    0.77474   1.00
C6       0.98532    0.58668    0.76229   1.00
H2       0.93440    0.58740    0.79978   1.00
C6       1.01209    0.74332    0.77774   1.00
H2       1.00508    0.74260    0.84059   1.00
H2       1.02224    0.69774    0.82024   1.00
H2       1.00853    0.60678    0.75186   1.00
H2       0.99913    0.56120    0.77683   1.00
H2       0.96868    0.57602    0.73660   1.00
H2       1.00952    0.72322    0.75243   1.00
H2       0.99259    0.76880    0.77306   1.00
H2       1.04266    0.75398    0.77931   1.00
C4       0.91461    0.91433    0.64433   1.00
C4       0.91539    0.91567    0.68567   1.00
C3       0.94323    0.89357    0.62256   1.00
C3       0.94767    0.90127    0.70744   1.00
C4       0.88483    0.93433    0.62350   1.00
C4       0.88317    0.93146    0.70650   1.00
C2       0.91555    0.91470    0.56148   1.00
C2       0.91554    0.91467    0.76852   1.00
C3       0.94373    0.89418    0.58190   1.00
C3       0.94740    0.90053    0.74810   1.00
C3       0.88610    0.93412    0.58194   1.00
C3       0.88399    0.93047    0.74806   1.00
H1       0.96521    0.87570    0.63612   1.00
H1       0.97414    0.89117    0.69388   1.00
C5       0.85432    0.95348    0.64435   1.00
C5       0.85134    0.94831    0.68565   1.00
H1       0.96608    0.87835    0.56614   1.00
H1       0.97228    0.88909    0.76386   1.00
H1       0.86416    0.94836    0.56447   1.00
H1       0.86069    0.94235    0.76553   1.00
C6       0.82615    0.98046    0.62266   1.00
C6       0.81388    0.95922    0.70734   1.00
H2       0.81758    1.00543    0.64142   1.00
H2       0.84027    0.99510    0.59763   1.00
C6       0.79036    0.95792    0.60776   1.00
H2       0.78798    0.95415    0.68858   1.00
H2       0.80827    0.93967    0.73237   1.00
C6       0.81551    1.00148    0.72224   1.00
H2       0.77474    0.94345    0.63226   1.00
C6       0.76229    0.98532    0.58668   1.00
H2       0.79978    0.93440    0.58740   1.00
C6       0.77774    1.01209    0.74332   1.00
H2       0.84059    1.00508    0.74260   1.00
H2       0.82024    1.02224    0.69774   1.00
H2       0.75186    1.00853    0.60678   1.00
H2       0.77683    0.99913    0.56120   1.00
H2       0.73660    0.96868    0.57602   1.00
H2       0.75243    1.00952    0.72322   1.00
H2       0.77306    0.99259    0.76880   1.00
H2       0.77931    1.04266    0.75398   1.00
C4       0.41461    0.41567    1.18567   1.00
C4       0.41539    0.41433    1.14433   1.00
C3       0.44323    0.43643    1.20744   1.00
C3       0.44767    0.42873    1.12256   1.00
C4       0.38483    0.39567    1.20650   1.00
C4       0.38317    0.39854    1.12350   1.00
C2       0.41555    0.41530    1.26852   1.00
C2       0.41554    0.41533    1.06148   1.00
C3       0.44373    0.43582    1.24810   1.00
C3       0.44740    0.42947    1.08190   1.00
C3       0.38610    0.39588    1.24806   1.00
C3       0.38399    0.39953    1.08194   1.00
H1       0.46521    0.45430    1.19388   1.00
H1       0.47414    0.43883    1.13612   1.00
C5       0.35432    0.37652    1.18565   1.00
C5       0.35134    0.38169    1.14435   1.00
H1       0.46608    0.45165    1.26386   1.00
H1       0.47228    0.44091    1.06614   1.00
H1       0.36416    0.38164    1.26553   1.00
H1       0.36069    0.38765    1.06447   1.00
C6       0.32615    0.34954    1.20734   1.00
C6       0.31388    0.37078    1.12266   1.00
H2       0.31758    0.32457    1.18858   1.00
H2       0.34027    0.33490    1.23237   1.00
C6       0.29036    0.37208    1.22224   1.00
H2       0.28798    0.37585    1.14142   1.00
H2       0.30827    0.39033    1.09763   1.00
C6       0.31551    0.32852    1.10776   1.00
H2       0.27474    0.38655    1.19774   1.00
C6       0.26229    0.34468    1.24332   1.00
H2       0.29978    0.39560    1.24260   1.00
C6       0.27774    0.31791    1.08668   1.00
H2       0.34059    0.32492    1.08740   1.00
H2       0.32024    0.30776    1.13226   1.00
H2       0.25186    0.32147    1.22322   1.00
H2       0.27683    0.33087    1.26880   1.00
H2       0.23660    0.36132    1.25398   1.00
H2       0.25243    0.32048    1.10678   1.00
H2       0.27306    0.33741    1.06120   1.00
H2       0.27931    0.28734    1.07602   1.00
C4       0.41567    0.68567    0.91461   1.00
C4       0.41433    0.64433    0.91539   1.00
C3       0.43643    0.70744    0.94323   1.00
C3       0.42873    0.62256    0.94767   1.00
C4       0.39567    0.70650    0.88483   1.00
C4       0.39854    0.62350    0.88317   1.00
C2       0.41530    0.76852    0.91555   1.00
C2       0.41533    0.56148    0.91554   1.00
C3       0.43582    0.74810    0.94373   1.00
C3       0.42947    0.58190    0.94740   1.00
C3       0.39588    0.74806    0.88610   1.00
C3       0.39953    0.58194    0.88399   1.00
H1       0.45430    0.69388    0.96521   1.00
H1       0.43883    0.63612    0.97414   1.00
C5       0.37652    0.68565    0.85432   1.00
C5       0.38169    0.64435    0.85134   1.00
H1       0.45165    0.76386    0.96608   1.00
H1       0.44091    0.56614    0.97228   1.00
H1       0.38164    0.76553    0.86416   1.00
H1       0.38765    0.56447    0.86069   1.00
C6       0.34954    0.70734    0.82615   1.00
C6       0.37078    0.62266    0.81388   1.00
H2       0.32457    0.68858    0.81758   1.00
H2       0.33490    0.73237    0.84027   1.00
C6       0.37208    0.72224    0.79036   1.00
H2       0.37585    0.64142    0.78798   1.00
H2       0.39033    0.59763    0.80827   1.00
C6       0.32852    0.60776    0.81551   1.00
H2       0.38655    0.69774    0.77474   1.00
C6       0.34468    0.74332    0.76229   1.00
H2       0.39560    0.74260    0.79978   1.00
C6       0.31791    0.58668    0.77774   1.00
H2       0.32492    0.58740    0.84059   1.00
H2       0.30776    0.63226    0.82024   1.00
H2       0.32147    0.72322    0.75186   1.00
H2       0.33087    0.76880    0.77683   1.00
H2       0.36132    0.75398    0.73660   1.00
H2       0.32048    0.60678    0.75243   1.00
H2       0.33741    0.56120    0.77306   1.00
H2       0.28734    0.57602    0.77931   1.00
C4       0.14433    0.41461    0.91433   1.00
C4       0.18567    0.41539    0.91567   1.00
C3       0.12256    0.44323    0.89357   1.00
C3       0.20744    0.44767    0.90127   1.00
C4       0.12350    0.38483    0.93433   1.00
C4       0.20650    0.38317    0.93146   1.00
C2       0.06148    0.41555    0.91470   1.00
C2       0.26852    0.41554    0.91467   1.00
C3       0.08190    0.44373    0.89418   1.00
C3       0.24810    0.44740    0.90053   1.00
C3       0.08194    0.38610    0.93412   1.00
C3       0.24806    0.38399    0.93047   1.00
H1       0.13612    0.46521    0.87570   1.00
H1       0.19388    0.47414    0.89117   1.00
C5       0.14435    0.35432    0.95348   1.00
C5       0.18565    0.35134    0.94831   1.00
H1       0.06614    0.46608    0.87835   1.00
H1       0.26386    0.47228    0.88909   1.00
H1       0.06447    0.36416    0.94836   1.00
H1       0.26553    0.36069    0.94235   1.00
C6       0.12266    0.32615    0.98046   1.00
C6       0.20734    0.31388    0.95922   1.00
H2       0.14142    0.31758    1.00543   1.00
H2       0.09763    0.34027    0.99510   1.00
C6       0.10776    0.29036    0.95792   1.00
H2       0.18858    0.28798    0.95415   1.00
H2       0.23237    0.30827    0.93967   1.00
C6       0.22224    0.31551    1.00148   1.00
H2       0.13226    0.27474    0.94345   1.00
C6       0.08668    0.26229    0.98532   1.00
H2       0.08740    0.29978    0.93440   1.00
C6       0.24332    0.27774    1.01209   1.00
H2       0.24260    0.34059    1.00508   1.00
H2       0.19774    0.32024    1.02224   1.00
H2       0.10678    0.25186    1.00853   1.00
H2       0.06120    0.27683    0.99913   1.00
H2       0.07602    0.23660    0.96868   1.00
H2       0.22322    0.25243    1.00952   1.00
H2       0.26880    0.27306    0.99259   1.00
H2       0.25398    0.27931    1.04266   1.00
C4       0.68567    0.41461    0.91567   1.00
C4       0.64433    0.41539    0.91433   1.00
C3       0.70744    0.44323    0.93643   1.00
C3       0.62256    0.44767    0.92873   1.00
C4       0.70650    0.38483    0.89567   1.00
C4       0.62350    0.38317    0.89854   1.00
C2       0.76852    0.41555    0.91530   1.00
C2       0.56148    0.41554    0.91533   1.00
C3       0.74810    0.44373    0.93582   1.00
C3       0.58190    0.44740    0.92947   1.00
C3       0.74806    0.38610    0.89588   1.00
C3       0.58194    0.38399    0.89953   1.00
H1       0.69388    0.46521    0.95430   1.00
H1       0.63612    0.47414    0.93883   1.00
C5       0.68565    0.35432    0.87652   1.00
C5       0.64435    0.35134    0.88169   1.00
H1       0.76386    0.46608    0.95165   1.00
H1       0.56614    0.47228    0.94091   1.00
H1       0.76553    0.36416    0.88164   1.00
H1       0.56447    0.36069    0.88765   1.00
C6       0.70734    0.32615    0.84954   1.00
C6       0.62266    0.31388    0.87078   1.00
H2       0.68858    0.31758    0.82457   1.00
H2       0.73237    0.34027    0.83490   1.00
C6       0.72224    0.29036    0.87208   1.00
H2       0.64142    0.28798    0.87585   1.00
H2       0.59763    0.30827    0.89033   1.00
C6       0.60776    0.31551    0.82852   1.00
H2       0.69774    0.27474    0.88655   1.00
C6       0.74332    0.26229    0.84468   1.00
H2       0.74260    0.29978    0.89560   1.00
C6       0.58668    0.27774    0.81791   1.00
H2       0.58740    0.34059    0.82492   1.00
H2       0.63226    0.32024    0.80776   1.00
H2       0.72322    0.25186    0.82147   1.00
H2       0.76880    0.27683    0.83087   1.00
H2       0.75398    0.23660    0.86132   1.00
H2       0.60678    0.25243    0.82048   1.00
H2       0.56120    0.27306    0.83741   1.00
H2       0.57602    0.27931    0.78734   1.00
C4       0.41433    0.14433    0.91461   1.00
C4       0.41567    0.18567    0.91539   1.00
C3       0.39357    0.12256    0.94323   1.00
C3       0.40127    0.20744    0.94767   1.00
C4       0.43433    0.12350    0.88483   1.00
C4       0.43146    0.20650    0.88317   1.00
C2       0.41470    0.06148    0.91555   1.00
C2       0.41467    0.26852    0.91554   1.00
C3       0.39418    0.08190    0.94373   1.00
C3       0.40053    0.24810    0.94740   1.00
C3       0.43412    0.08194    0.88610   1.00
C3       0.43047    0.24806    0.88399   1.00
H1       0.37570    0.13612    0.96521   1.00
H1       0.39117    0.19388    0.97414   1.00
C5       0.45348    0.14435    0.85432   1.00
C5       0.44831    0.18565    0.85134   1.00
H1       0.37835    0.06614    0.96608   1.00
H1       0.38909    0.26386    0.97228   1.00
H1       0.44836    0.06447    0.86416   1.00
H1       0.44235    0.26553    0.86069   1.00
C6       0.48046    0.12266    0.82615   1.00
C6       0.45922    0.20734    0.81388   1.00
H2       0.50543    0.14142    0.81758   1.00
H2       0.49510    0.09763    0.84027   1.00
C6       0.45792    0.10776    0.79036   1.00
H2       0.45415    0.18858    0.78798   1.00
H2       0.43967    0.23237    0.80827   1.00
C6       0.50148    0.22224    0.81551   1.00
H2       0.44345    0.13226    0.77474   1.00
C6       0.48532    0.08668    0.76229   1.00
H2       0.43440    0.08740    0.79978   1.00
C6       0.51209    0.24332    0.77774   1.00
H2       0.50508    0.24260    0.84059   1.00
H2       0.52224    0.19774    0.82024   1.00
H2       0.50853    0.10678    0.75186   1.00
H2       0.49913    0.06120    0.77683   1.00
H2       0.46868    0.07602    0.73660   1.00
H2       0.50952    0.22322    0.75243   1.00
H2       0.49259    0.26880    0.77306   1.00
H2       0.54266    0.25398    0.77931   1.00
C4       0.41461    0.41433    0.64433   1.00
C4       0.41539    0.41567    0.68567   1.00
C3       0.44323    0.39357    0.62256   1.00
C3       0.44767    0.40127    0.70744   1.00
C4       0.38483    0.43433    0.62350   1.00
C4       0.38317    0.43146    0.70650   1.00
C2       0.41555    0.41470    0.56148   1.00
C2       0.41554    0.41467    0.76852   1.00
C3       0.44373    0.39418    0.58190   1.00
C3       0.44740    0.40053    0.74810   1.00
C3       0.38610    0.43412    0.58194   1.00
C3       0.38399    0.43047    0.74806   1.00
H1       0.46521    0.37570    0.63612   1.00
H1       0.47414    0.39117    0.69388   1.00
C5       0.35432    0.45348    0.64435   1.00
C5       0.35134    0.44831    0.68565   1.00
H1       0.46608    0.37835    0.56614   1.00
H1       0.47228    0.38909    0.76386   1.00
H1       0.36416    0.44836    0.56447   1.00
H1       0.36069    0.44235    0.76553   1.00
C6       0.32615    0.48046    0.62266   1.00
C6       0.31388    0.45922    0.70734   1.00
H2       0.31758    0.50543    0.64142   1.00
H2       0.34027    0.49510    0.59763   1.00
C6       0.29036    0.45792    0.60776   1.00
H2       0.28798    0.45415    0.68858   1.00
H2       0.30827    0.43967    0.73237   1.00
C6       0.31551    0.50148    0.72224   1.00
H2       0.27474    0.44345    0.63226   1.00
C6       0.26229    0.48532    0.58668   1.00
H2       0.29978    0.43440    0.58740   1.00
C6       0.27774    0.51209    0.74332   1.00
H2       0.34059    0.50508    0.74260   1.00
H2       0.32024    0.52224    0.69774   1.00
H2       0.25186    0.50853    0.60678   1.00
H2       0.27683    0.49913    0.56120   1.00
H2       0.23660    0.46868    0.57602   1.00
H2       0.25243    0.50952    0.72322   1.00
H2       0.27306    0.49259    0.76880   1.00
H2       0.27931    0.54266    0.75398   1.00
C4       0.41461    0.91567    0.68567   1.00
C4       0.41539    0.91433    0.64433   1.00
C3       0.44323    0.93643    0.70744   1.00
C3       0.44767    0.92873    0.62256   1.00
C4       0.38483    0.89567    0.70650   1.00
C4       0.38317    0.89854    0.62350   1.00
C2       0.41555    0.91530    0.76852   1.00
C2       0.41554    0.91533    0.56148   1.00
C3       0.44373    0.93582    0.74810   1.00
C3       0.44740    0.92947    0.58190   1.00
C3       0.38610    0.89588    0.74806   1.00
C3       0.38399    0.89953    0.58194   1.00
H1       0.46521    0.95430    0.69388   1.00
H1       0.47414    0.93883    0.63612   1.00
C5       0.35432    0.87652    0.68565   1.00
C5       0.35134    0.88169    0.64435   1.00
H1       0.46608    0.95165    0.76386   1.00
H1       0.47228    0.94091    0.56614   1.00
H1       0.36416    0.88164    0.76553   1.00
H1       0.36069    0.88765    0.56447   1.00
C6       0.32615    0.84954    0.70734   1.00
C6       0.31388    0.87078    0.62266   1.00
H2       0.31758    0.82457    0.68858   1.00
H2       0.34027    0.83490    0.73237   1.00
C6       0.29036    0.87208    0.72224   1.00
H2       0.28798    0.87585    0.64142   1.00
H2       0.30827    0.89033    0.59763   1.00
C6       0.31551    0.82852    0.60776   1.00
H2       0.27474    0.88655    0.69774   1.00
C6       0.26229    0.84468    0.74332   1.00
H2       0.29978    0.89560    0.74260   1.00
C6       0.27774    0.81791    0.58668   1.00
H2       0.34059    0.82492    0.58740   1.00
H2       0.32024    0.80776    0.63226   1.00
H2       0.25186    0.82147    0.72322   1.00
H2       0.27683    0.83087    0.76880   1.00
H2       0.23660    0.86132    0.75398   1.00
H2       0.25243    0.82048    0.60678   1.00
H2       0.27306    0.83741    0.56120   1.00
H2       0.27931    0.78734    0.57602   1.00
C4       0.41567    1.18567    0.41461   1.00
C4       0.41433    1.14433    0.41539   1.00
C3       0.43643    1.20744    0.44323   1.00
C3       0.42873    1.12256    0.44767   1.00
C4       0.39567    1.20650    0.38483   1.00
C4       0.39854    1.12350    0.38317   1.00
C2       0.41530    1.26852    0.41555   1.00
C2       0.41533    1.06148    0.41554   1.00
C3       0.43582    1.24810    0.44373   1.00
C3       0.42947    1.08190    0.44740   1.00
C3       0.39588    1.24806    0.38610   1.00
C3       0.39953    1.08194    0.38399   1.00
H1       0.45430    1.19388    0.46521   1.00
H1       0.43883    1.13612    0.47414   1.00
C5       0.37652    1.18565    0.35432   1.00
C5       0.38169    1.14435    0.35134   1.00
H1       0.45165    1.26386    0.46608   1.00
H1       0.44091    1.06614    0.47228   1.00
H1       0.38164    1.26553    0.36416   1.00
H1       0.38765    1.06447    0.36069   1.00
C6       0.34954    1.20734    0.32615   1.00
C6       0.37078    1.12266    0.31388   1.00
H2       0.32457    1.18858    0.31758   1.00
H2       0.33490    1.23237    0.34027   1.00
C6       0.37208    1.22224    0.29036   1.00
H2       0.37585    1.14142    0.28798   1.00
H2       0.39033    1.09763    0.30827   1.00
C6       0.32852    1.10776    0.31551   1.00
H2       0.38655    1.19774    0.27474   1.00
C6       0.34468    1.24332    0.26229   1.00
H2       0.39560    1.24260    0.29978   1.00
C6       0.31791    1.08668    0.27774   1.00
H2       0.32492    1.08740    0.34059   1.00
H2       0.30776    1.13226    0.32024   1.00
H2       0.32147    1.22322    0.25186   1.00
H2       0.33087    1.26880    0.27683   1.00
H2       0.36132    1.25398    0.23660   1.00
H2       0.32048    1.10678    0.25243   1.00
H2       0.33741    1.06120    0.27306   1.00
H2       0.28734    1.07602    0.27931   1.00
C4       0.14433    0.91461    0.41433   1.00
C4       0.18567    0.91539    0.41567   1.00
C3       0.12256    0.94323    0.39357   1.00
C3       0.20744    0.94767    0.40127   1.00
C4       0.12350    0.88483    0.43433   1.00
C4       0.20650    0.88317    0.43146   1.00
C2       0.06148    0.91555    0.41470   1.00
C2       0.26852    0.91554    0.41467   1.00
C3       0.08190    0.94373    0.39418   1.00
C3       0.24810    0.94740    0.40053   1.00
C3       0.08194    0.88610    0.43412   1.00
C3       0.24806    0.88399    0.43047   1.00
H1       0.13612    0.96521    0.37570   1.00
H1       0.19388    0.97414    0.39117   1.00
C5       0.14435    0.85432    0.45348   1.00
C5       0.18565    0.85134    0.44831   1.00
H1       0.06614    0.96608    0.37835   1.00
H1       0.26386    0.97228    0.38909   1.00
H1       0.06447    0.86416    0.44836   1.00
H1       0.26553    0.86069    0.44235   1.00
C6       0.12266    0.82615    0.48046   1.00
C6       0.20734    0.81388    0.45922   1.00
H2       0.14142    0.81758    0.50543   1.00
H2       0.09763    0.84027    0.49510   1.00
C6       0.10776    0.79036    0.45792   1.00
H2       0.18858    0.78798    0.45415   1.00
H2       0.23237    0.80827    0.43967   1.00
C6       0.22224    0.81551    0.50148   1.00
H2       0.13226    0.77474    0.44345   1.00
C6       0.08668    0.76229    0.48532   1.00
H2       0.08740    0.79978    0.43440   1.00
C6       0.24332    0.77774    0.51209   1.00
H2       0.24260    0.84059    0.50508   1.00
H2       0.19774    0.82024    0.52224   1.00
H2       0.10678    0.75186    0.50853   1.00
H2       0.06120    0.77683    0.49913   1.00
H2       0.07602    0.73660    0.46868   1.00
H2       0.22322    0.75243    0.50952   1.00
H2       0.26880    0.77306    0.49259   1.00
H2       0.25398    0.77931    0.54266   1.00
C4       0.68567    0.91461    0.41567   1.00
C4       0.64433    0.91539    0.41433   1.00
C3       0.70744    0.94323    0.43643   1.00
C3       0.62256    0.94767    0.42873   1.00
C4       0.70650    0.88483    0.39567   1.00
C4       0.62350    0.88317    0.39854   1.00
C2       0.76852    0.91555    0.41530   1.00
C2       0.56148    0.91554    0.41533   1.00
C3       0.74810    0.94373    0.43582   1.00
C3       0.58190    0.94740    0.42947   1.00
C3       0.74806    0.88610    0.39588   1.00
C3       0.58194    0.88399    0.39953   1.00
H1       0.69388    0.96521    0.45430   1.00
H1       0.63612    0.97414    0.43883   1.00
C5       0.68565    0.85432    0.37652   1.00
C5       0.64435    0.85134    0.38169   1.00
H1       0.76386    0.96608    0.45165   1.00
H1       0.56614    0.97228    0.44091   1.00
H1       0.76553    0.86416    0.38164   1.00
H1       0.56447    0.86069    0.38765   1.00
C6       0.70734    0.82615    0.34954   1.00
C6       0.62266    0.81388    0.37078   1.00
H2       0.68858    0.81758    0.32457   1.00
H2       0.73237    0.84027    0.33490   1.00
C6       0.72224    0.79036    0.37208   1.00
H2       0.64142    0.78798    0.37585   1.00
H2       0.59763    0.80827    0.39033   1.00
C6       0.60776    0.81551    0.32852   1.00
H2       0.69774    0.77474    0.38655   1.00
C6       0.74332    0.76229    0.34468   1.00
H2       0.74260    0.79978    0.39560   1.00
C6       0.58668    0.77774    0.31791   1.00
H2       0.58740    0.84059    0.32492   1.00
H2       0.63226    0.82024    0.30776   1.00
H2       0.72322    0.75186    0.32147   1.00
H2       0.76880    0.77683    0.33087   1.00
H2       0.75398    0.73660    0.36132   1.00
H2       0.60678    0.75243    0.32048   1.00
H2       0.56120    0.77306    0.33741   1.00
H2       0.57602    0.77931    0.28734   1.00
C4       0.41433    0.64433    0.41461   1.00
C4       0.41567    0.68567    0.41539   1.00
C3       0.39357    0.62256    0.44323   1.00
C3       0.40127    0.70744    0.44767   1.00
C4       0.43433    0.62350    0.38483   1.00
C4       0.43146    0.70650    0.38317   1.00
C2       0.41470    0.56148    0.41555   1.00
C2       0.41467    0.76852    0.41554   1.00
C3       0.39418    0.58190    0.44373   1.00
C3       0.40053    0.74810    0.44740   1.00
C3       0.43412    0.58194    0.38610   1.00
C3       0.43047    0.74806    0.38399   1.00
H1       0.37570    0.63612    0.46521   1.00
H1       0.39117    0.69388    0.47414   1.00
C5       0.45348    0.64435    0.35432   1.00
C5       0.44831    0.68565    0.35134   1.00
H1       0.37835    0.56614    0.46608   1.00
H1       0.38909    0.76386    0.47228   1.00
H1       0.44836    0.56447    0.36416   1.00
H1       0.44235    0.76553    0.36069   1.00
C6       0.48046    0.62266    0.32615   1.00
C6       0.45922    0.70734    0.31388   1.00
H2       0.50543    0.64142    0.31758   1.00
H2       0.49510    0.59763    0.34027   1.00
C6       0.45792    0.60776    0.29036   1.00
H2       0.45415    0.68858    0.28798   1.00
H2       0.43967    0.73237    0.30827   1.00
C6       0.50148    0.72224    0.31551   1.00
H2       0.44345    0.63226    0.27474   1.00
C6       0.48532    0.58668    0.26229   1.00
H2       0.43440    0.58740    0.29978   1.00
C6       0.51209    0.74332    0.27774   1.00
H2       0.50508    0.74260    0.34059   1.00
H2       0.52224    0.69774    0.32024   1.00
H2       0.50853    0.60678    0.25186   1.00
H2       0.49913    0.56120    0.27683   1.00
H2       0.46868    0.57602    0.23660   1.00
H2       0.50952    0.72322    0.25243   1.00
H2       0.49259    0.76880    0.27306   1.00
H2       0.54266    0.75398    0.27931   1.00
C4       0.41461    0.91433    0.14433   1.00
C4       0.41539    0.91567    0.18567   1.00
C3       0.44323    0.89357    0.12256   1.00
C3       0.44767    0.90127    0.20744   1.00
C4       0.38483    0.93433    0.12350   1.00
C4       0.38317    0.93146    0.20650   1.00
C2       0.41555    0.91470    0.06148   1.00
C2       0.41554    0.91467    0.26852   1.00
C3       0.44373    0.89418    0.08190   1.00
C3       0.44740    0.90053    0.24810   1.00
C3       0.38610    0.93412    0.08194   1.00
C3       0.38399    0.93047    0.24806   1.00
H1       0.46521    0.87570    0.13612   1.00
H1       0.47414    0.89117    0.19388   1.00
C5       0.35432    0.95348    0.14435   1.00
C5       0.35134    0.94831    0.18565   1.00
H1       0.46608    0.87835    0.06614   1.00
H1       0.47228    0.88909    0.26386   1.00
H1       0.36416    0.94836    0.06447   1.00
H1       0.36069    0.94235    0.26553   1.00
C6       0.32615    0.98046    0.12266   1.00
C6       0.31388    0.95922    0.20734   1.00
H2       0.31758    1.00543    0.14142   1.00
H2       0.34027    0.99510    0.09763   1.00
C6       0.29036    0.95792    0.10776   1.00
H2       0.28798    0.95415    0.18858   1.00
H2       0.30827    0.93967    0.23237   1.00
C6       0.31551    1.00148    0.22224   1.00
H2       0.27474    0.94345    0.13226   1.00
C6       0.26229    0.98532    0.08668   1.00
H2       0.29978    0.93440    0.08740   1.00
C6       0.27774    1.01209    0.24332   1.00
H2       0.34059    1.00508    0.24260   1.00
H2       0.32024    1.02224    0.19774   1.00
H2       0.25186    1.00853    0.10678   1.00
H2       0.27683    0.99913    0.06120   1.00
H2       0.23660    0.96868    0.07602   1.00
H2       0.25243    1.00952    0.22322   1.00
H2       0.27306    0.99259    0.26880   1.00
H2       0.27931    1.04266    0.25398   1.00
C4       0.91461    0.41567    0.68567   1.00
C4       0.91539    0.41433    0.64433   1.00
C3       0.94323    0.43643    0.70744   1.00
C3       0.94767    0.42873    0.62256   1.00
C4       0.88483    0.39567    0.70650   1.00
C4       0.88317    0.39854    0.62350   1.00
C2       0.91555    0.41530    0.76852   1.00
C2       0.91554    0.41533    0.56148   1.00
C3       0.94373    0.43582    0.74810   1.00
C3       0.94740    0.42947    0.58190   1.00
C3       0.88610    0.39588    0.74806   1.00
C3       0.88399    0.39953    0.58194   1.00
H1       0.96521    0.45430    0.69388   1.00
H1       0.97414    0.43883    0.63612   1.00
C5       0.85432    0.37652    0.68565   1.00
C5       0.85134    0.38169    0.64435   1.00
H1       0.96608    0.45165    0.76386   1.00
H1       0.97228    0.44091    0.56614   1.00
H1       0.86416    0.38164    0.76553   1.00
H1       0.86069    0.38765    0.56447   1.00
C6       0.82615    0.34954    0.70734   1.00
C6       0.81388    0.37078    0.62266   1.00
H2       0.81758    0.32457    0.68858   1.00
H2       0.84027    0.33490    0.73237   1.00
C6       0.79036    0.37208    0.72224   1.00
H2       0.78798    0.37585    0.64142   1.00
H2       0.80827    0.39033    0.59763   1.00
C6       0.81551    0.32852    0.60776   1.00
H2       0.77474    0.38655    0.69774   1.00
C6       0.76229    0.34468    0.74332   1.00
H2       0.79978    0.39560    0.74260   1.00
C6       0.77774    0.31791    0.58668   1.00
H2       0.84059    0.32492    0.58740   1.00
H2       0.82024    0.30776    0.63226   1.00
H2       0.75186    0.32147    0.72322   1.00
H2       0.77683    0.33087    0.76880   1.00
H2       0.73660    0.36132    0.75398   1.00
H2       0.75243    0.32048    0.60678   1.00
H2       0.77306    0.33741    0.56120   1.00
H2       0.77931    0.28734    0.57602   1.00
C4       0.91567    0.68567    0.41461   1.00
C4       0.91433    0.64433    0.41539   1.00
C3       0.93643    0.70744    0.44323   1.00
C3       0.92873    0.62256    0.44767   1.00
C4       0.89567    0.70650    0.38483   1.00
C4       0.89854    0.62350    0.38317   1.00
C2       0.91530    0.76852    0.41555   1.00
C2       0.91533    0.56148    0.41554   1.00
C3       0.93582    0.74810    0.44373   1.00
C3       0.92947    0.58190    0.44740   1.00
C3       0.89588    0.74806    0.38610   1.00
C3       0.89953    0.58194    0.38399   1.00
H1       0.95430    0.69388    0.46521   1.00
H1       0.93883    0.63612    0.47414   1.00
C5       0.87652    0.68565    0.35432   1.00
C5       0.88169    0.64435    0.35134   1.00
H1       0.95165    0.76386    0.46608   1.00
H1       0.94091    0.56614    0.47228   1.00
H1       0.88164    0.76553    0.36416   1.00
H1       0.88765    0.56447    0.36069   1.00
C6       0.84954    0.70734    0.32615   1.00
C6       0.87078    0.62266    0.31388   1.00
H2       0.82457    0.68858    0.31758   1.00
H2       0.83490    0.73237    0.34027   1.00
C6       0.87208    0.72224    0.29036   1.00
H2       0.87585    0.64142    0.28798   1.00
H2       0.89033    0.59763    0.30827   1.00
C6       0.82852    0.60776    0.31551   1.00
H2       0.88655    0.69774    0.27474   1.00
C6       0.84468    0.74332    0.26229   1.00
H2       0.89560    0.74260    0.29978   1.00
C6       0.81791    0.58668    0.27774   1.00
H2       0.82492    0.58740    0.34059   1.00
H2       0.80776    0.63226    0.32024   1.00
H2       0.82147    0.72322    0.25186   1.00
H2       0.83087    0.76880    0.27683   1.00
H2       0.86132    0.75398    0.23660   1.00
H2       0.82048    0.60678    0.25243   1.00
H2       0.83741    0.56120    0.27306   1.00
H2       0.78734    0.57602    0.27931   1.00
C4       0.64433    0.41461    0.41433   1.00
C4       0.68567    0.41539    0.41567   1.00
C3       0.62256    0.44323    0.39357   1.00
C3       0.70744    0.44767    0.40127   1.00
C4       0.62350    0.38483    0.43433   1.00
C4       0.70650    0.38317    0.43146   1.00
C2       0.56148    0.41555    0.41470   1.00
C2       0.76852    0.41554    0.41467   1.00
C3       0.58190    0.44373    0.39418   1.00
C3       0.74810    0.44740    0.40053   1.00
C3       0.58194    0.38610    0.43412   1.00
C3       0.74806    0.38399    0.43047   1.00
H1       0.63612    0.46521    0.37570   1.00
H1       0.69388    0.47414    0.39117   1.00
C5       0.64435    0.35432    0.45348   1.00
C5       0.68565    0.35134    0.44831   1.00
H1       0.56614    0.46608    0.37835   1.00
H1       0.76386    0.47228    0.38909   1.00
H1       0.56447    0.36416    0.44836   1.00
H1       0.76553    0.36069    0.44235   1.00
C6       0.62266    0.32615    0.48046   1.00
C6       0.70734    0.31388    0.45922   1.00
H2       0.64142    0.31758    0.50543   1.00
H2       0.59763    0.34027    0.49510   1.00
C6       0.60776    0.29036    0.45792   1.00
H2       0.68858    0.28798    0.45415   1.00
H2       0.73237    0.30827    0.43967   1.00
C6       0.72224    0.31551    0.50148   1.00
H2       0.63226    0.27474    0.44345   1.00
C6       0.58668    0.26229    0.48532   1.00
H2       0.58740    0.29978    0.43440   1.00
C6       0.74332    0.27774    0.51209   1.00
H2       0.74260    0.34059    0.50508   1.00
H2       0.69774    0.32024    0.52224   1.00
H2       0.60678    0.25186    0.50853   1.00
H2       0.56120    0.27683    0.49913   1.00
H2       0.57602    0.23660    0.46868   1.00
H2       0.72322    0.25243    0.50952   1.00
H2       0.76880    0.27306    0.49259   1.00
H2       0.75398    0.27931    0.54266   1.00
C4       1.18567    0.41461    0.41567   1.00
C4       1.14433    0.41539    0.41433   1.00
C3       1.20744    0.44323    0.43643   1.00
C3       1.12256    0.44767    0.42873   1.00
C4       1.20650    0.38483    0.39567   1.00
C4       1.12350    0.38317    0.39854   1.00
C2       1.26852    0.41555    0.41530   1.00
C2       1.06148    0.41554    0.41533   1.00
C3       1.24810    0.44373    0.43582   1.00
C3       1.08190    0.44740    0.42947   1.00
C3       1.24806    0.38610    0.39588   1.00
C3       1.08194    0.38399    0.39953   1.00
H1       1.19388    0.46521    0.45430   1.00
H1       1.13612    0.47414    0.43883   1.00
C5       1.18565    0.35432    0.37652   1.00
C5       1.14435    0.35134    0.38169   1.00
H1       1.26386    0.46608    0.45165   1.00
H1       1.06614    0.47228    0.44091   1.00
H1       1.26553    0.36416    0.38164   1.00
H1       1.06447    0.36069    0.38765   1.00
C6       1.20734    0.32615    0.34954   1.00
C6       1.12266    0.31388    0.37078   1.00
H2       1.18858    0.31758    0.32457   1.00
H2       1.23237    0.34027    0.33490   1.00
C6       1.22224    0.29036    0.37208   1.00
H2       1.14142    0.28798    0.37585   1.00
H2       1.09763    0.30827    0.39033   1.00
C6       1.10776    0.31551    0.32852   1.00
H2       1.19774    0.27474    0.38655   1.00
C6       1.24332    0.26229    0.34468   1.00
H2       1.24260    0.29978    0.39560   1.00
C6       1.08668    0.27774    0.31791   1.00
H2       1.08740    0.34059    0.32492   1.00
H2       1.13226    0.32024    0.30776   1.00
H2       1.22322    0.25186    0.32147   1.00
H2       1.26880    0.27683    0.33087   1.00
H2       1.25398    0.23660    0.36132   1.00
H2       1.10678    0.25243    0.32048   1.00
H2       1.06120    0.27306    0.33741   1.00
H2       1.07602    0.27931    0.28734   1.00
C4       0.91433    0.14433    0.41461   1.00
C4       0.91567    0.18567    0.41539   1.00
C3       0.89357    0.12256    0.44323   1.00
C3       0.90127    0.20744    0.44767   1.00
C4       0.93433    0.12350    0.38483   1.00
C4       0.93146    0.20650    0.38317   1.00
C2       0.91470    0.06148    0.41555   1.00
C2       0.91467    0.26852    0.41554   1.00
C3       0.89418    0.08190    0.44373   1.00
C3       0.90053    0.24810    0.44740   1.00
C3       0.93412    0.08194    0.38610   1.00
C3       0.93047    0.24806    0.38399   1.00
H1       0.87570    0.13612    0.46521   1.00
H1       0.89117    0.19388    0.47414   1.00
C5       0.95348    0.14435    0.35432   1.00
C5       0.94831    0.18565    0.35134   1.00
H1       0.87835    0.06614    0.46608   1.00
H1       0.88909    0.26386    0.47228   1.00
H1       0.94836    0.06447    0.36416   1.00
H1       0.94235    0.26553    0.36069   1.00
C6       0.98046    0.12266    0.32615   1.00
C6       0.95922    0.20734    0.31388   1.00
H2       1.00543    0.14142    0.31758   1.00
H2       0.99510    0.09763    0.34027   1.00
C6       0.95792    0.10776    0.29036   1.00
H2       0.95415    0.18858    0.28798   1.00
H2       0.93967    0.23237    0.30827   1.00
C6       1.00148    0.22224    0.31551   1.00
H2       0.94345    0.13226    0.27474   1.00
C6       0.98532    0.08668    0.26229   1.00
H2       0.93440    0.08740    0.29978   1.00
C6       1.01209    0.24332    0.27774   1.00
H2       1.00508    0.24260    0.34059   1.00
H2       1.02224    0.19774    0.32024   1.00
H2       1.00853    0.10678    0.25186   1.00
H2       0.99913    0.06120    0.27683   1.00
H2       0.96868    0.07602    0.23660   1.00
H2       1.00952    0.22322    0.25243   1.00
H2       0.99259    0.26880    0.27306   1.00
H2       1.04266    0.25398    0.27931   1.00
C4       0.91461    0.41433    0.14433   1.00
C4       0.91539    0.41567    0.18567   1.00
C3       0.94323    0.39357    0.12256   1.00
C3       0.94767    0.40127    0.20744   1.00
C4       0.88483    0.43433    0.12350   1.00
C4       0.88317    0.43146    0.20650   1.00
C2       0.91555    0.41470    0.06148   1.00
C2       0.91554    0.41467    0.26852   1.00
C3       0.94373    0.39418    0.08190   1.00
C3       0.94740    0.40053    0.24810   1.00
C3       0.88610    0.43412    0.08194   1.00
C3       0.88399    0.43047    0.24806   1.00
H1       0.96521    0.37570    0.13612   1.00
H1       0.97414    0.39117    0.19388   1.00
C5       0.85432    0.45348    0.14435   1.00
C5       0.85134    0.44831    0.18565   1.00
H1       0.96608    0.37835    0.06614   1.00
H1       0.97228    0.38909    0.26386   1.00
H1       0.86416    0.44836    0.06447   1.00
H1       0.86069    0.44235    0.26553   1.00
C6       0.82615    0.48046    0.12266   1.00
C6       0.81388    0.45922    0.20734   1.00
H2       0.81758    0.50543    0.14142   1.00
H2       0.84027    0.49510    0.09763   1.00
C6       0.79036    0.45792    0.10776   1.00
H2       0.78798    0.45415    0.18858   1.00
H2       0.80827    0.43967    0.23237   1.00
C6       0.81551    0.50148    0.22224   1.00
H2       0.77474    0.44345    0.13226   1.00
C6       0.76229    0.48532    0.08668   1.00
H2       0.79978    0.43440    0.08740   1.00
C6       0.77774    0.51209    0.24332   1.00
H2       0.84059    0.50508    0.24260   1.00
H2       0.82024    0.52224    0.19774   1.00
H2       0.75186    0.50853    0.10678   1.00
H2       0.77683    0.49913    0.06120   1.00
H2       0.73660    0.46868    0.07602   1.00
H2       0.75243    0.50952    0.22322   1.00
H2       0.77306    0.49259    0.26880   1.00
H2       0.77931    0.54266    0.25398   1.00
