data_IRMOF10_SG202_interpen_Ligand11cp_label_a.

_audit_creation_method             'generated by an auxiliary program of Tobunporous'

_symmetry_space_group_name_H-M     'P 1'
_symmetry_Int_Tables_number        1
_symmetry_cell_setting             triclinic

_cell_length_a                    34.2800
_cell_length_b                    34.2800
_cell_length_c                    34.2800
_cell_angle_alpha                 90.0000
_cell_angle_beta                  90.0000
_cell_angle_gamma                 90.0000

loop_
_atom_site_label
_atom_site_fract_x
_atom_site_fract_y
_atom_site_fract_z
_atom_site_occupancy
O1       0.75000    0.75000    0.75000   1.00
Zn1      0.71720    0.78280    0.78280   1.00
Zn1      0.78280    0.71720    0.78280   1.00
Zn1      0.78280    0.78280    0.71720   1.00
Zn1      0.71720    0.71720    0.71720   1.00
O2       0.72650    0.77350    0.83820   1.00
O2       0.72650    0.83820    0.77350   1.00
O2       0.66180    0.77350    0.77350   1.00
O2       0.77350    0.72650    0.83820   1.00
O2       0.83820    0.72650    0.77350   1.00
O2       0.77350    0.66180    0.77350   1.00
O2       0.77350    0.83820    0.72650   1.00
O2       0.83820    0.77350    0.72650   1.00
O2       0.77350    0.77350    0.66180   1.00
O2       0.66180    0.72650    0.72650   1.00
O2       0.72650    0.66180    0.72650   1.00
O2       0.72650    0.72650    0.66180   1.00
C1       0.75000    0.75000    0.85520   1.00
C1       0.75000    0.85520    0.75000   1.00
C1       0.64480    0.75000    0.75000   1.00
C1       0.85520    0.75000    0.75000   1.00
C1       0.75000    0.64480    0.75000   1.00
C1       0.75000    0.75000    0.64480   1.00
O1       0.25000    0.25000    0.75000   1.00
Zn1      0.21720    0.28280    0.78280   1.00
Zn1      0.28280    0.21720    0.78280   1.00
Zn1      0.28280    0.28280    0.71720   1.00
Zn1      0.21720    0.21720    0.71720   1.00
O2       0.22650    0.27350    0.83820   1.00
O2       0.22650    0.33820    0.77350   1.00
O2       0.16180    0.27350    0.77350   1.00
O2       0.27350    0.22650    0.83820   1.00
O2       0.33820    0.22650    0.77350   1.00
O2       0.27350    0.16180    0.77350   1.00
O2       0.27350    0.33820    0.72650   1.00
O2       0.33820    0.27350    0.72650   1.00
O2       0.27350    0.27350    0.66180   1.00
O2       0.16180    0.22650    0.72650   1.00
O2       0.22650    0.16180    0.72650   1.00
O2       0.22650    0.22650    0.66180   1.00
C1       0.25000    0.25000    0.85520   1.00
C1       0.25000    0.35520    0.75000   1.00
C1       0.14480    0.25000    0.75000   1.00
C1       0.35520    0.25000    0.75000   1.00
C1       0.25000    0.14480    0.75000   1.00
C1       0.25000    0.25000    0.64480   1.00
O1       0.25000    0.75000    0.25000   1.00
Zn1      0.21720    0.78280    0.28280   1.00
Zn1      0.28280    0.71720    0.28280   1.00
Zn1      0.28280    0.78280    0.21720   1.00
Zn1      0.21720    0.71720    0.21720   1.00
O2       0.22650    0.77350    0.33820   1.00
O2       0.22650    0.83820    0.27350   1.00
O2       0.16180    0.77350    0.27350   1.00
O2       0.27350    0.72650    0.33820   1.00
O2       0.33820    0.72650    0.27350   1.00
O2       0.27350    0.66180    0.27350   1.00
O2       0.27350    0.83820    0.22650   1.00
O2       0.33820    0.77350    0.22650   1.00
O2       0.27350    0.77350    0.16180   1.00
O2       0.16180    0.72650    0.22650   1.00
O2       0.22650    0.66180    0.22650   1.00
O2       0.22650    0.72650    0.16180   1.00
C1       0.25000    0.75000    0.35520   1.00
C1       0.25000    0.85520    0.25000   1.00
C1       0.14480    0.75000    0.25000   1.00
C1       0.35520    0.75000    0.25000   1.00
C1       0.25000    0.64480    0.25000   1.00
C1       0.25000    0.75000    0.14480   1.00
O1       0.75000    0.25000    0.25000   1.00
Zn1      0.71720    0.28280    0.28280   1.00
Zn1      0.78280    0.21720    0.28280   1.00
Zn1      0.78280    0.28280    0.21720   1.00
Zn1      0.71720    0.21720    0.21720   1.00
O2       0.72650    0.27350    0.33820   1.00
O2       0.72650    0.33820    0.27350   1.00
O2       0.66180    0.27350    0.27350   1.00
O2       0.77350    0.22650    0.33820   1.00
O2       0.83820    0.22650    0.27350   1.00
O2       0.77350    0.16180    0.27350   1.00
O2       0.77350    0.33820    0.22650   1.00
O2       0.83820    0.27350    0.22650   1.00
O2       0.77350    0.27350    0.16180   1.00
O2       0.66180    0.22650    0.22650   1.00
O2       0.72650    0.16180    0.22650   1.00
O2       0.72650    0.22650    0.16180   1.00
C1       0.75000    0.25000    0.35520   1.00
C1       0.75000    0.35520    0.25000   1.00
C1       0.64480    0.25000    0.25000   1.00
C1       0.85520    0.25000    0.25000   1.00
C1       0.75000    0.14480    0.25000   1.00
C1       0.75000    0.25000    0.14480   1.00
O1       0.25000    0.25000    0.25000   1.00
Zn1      0.28280    0.21720    0.21720   1.00
Zn1      0.21720    0.28280    0.21720   1.00
Zn1      0.21720    0.21720    0.28280   1.00
Zn1      0.28280    0.28280    0.28280   1.00
O2       0.27350    0.22650    0.16180   1.00
O2       0.27350    0.16180    0.22650   1.00
O2       0.33820    0.22650    0.22650   1.00
O2       0.22650    0.27350    0.16180   1.00
O2       0.16180    0.27350    0.22650   1.00
O2       0.22650    0.33820    0.22650   1.00
O2       0.22650    0.16180    0.27350   1.00
O2       0.16180    0.22650    0.27350   1.00
O2       0.22650    0.22650    0.33820   1.00
O2       0.33820    0.27350    0.27350   1.00
O2       0.27350    0.33820    0.27350   1.00
O2       0.27350    0.27350    0.33820   1.00
C1       0.25000    0.25000    0.14480   1.00
C1       0.25000    0.14480    0.25000   1.00
C1       0.35520    0.25000    0.25000   1.00
C1       0.14480    0.25000    0.25000   1.00
C1       0.25000    0.35520    0.25000   1.00
C1       0.25000    0.25000    0.35520   1.00
O1       0.75000    0.75000    0.25000   1.00
Zn1      0.78280    0.71720    0.21720   1.00
Zn1      0.71720    0.78280    0.21720   1.00
Zn1      0.71720    0.71720    0.28280   1.00
Zn1      0.78280    0.78280    0.28280   1.00
O2       0.77350    0.72650    0.16180   1.00
O2       0.77350    0.66180    0.22650   1.00
O2       0.83820    0.72650    0.22650   1.00
O2       0.72650    0.77350    0.16180   1.00
O2       0.66180    0.77350    0.22650   1.00
O2       0.72650    0.83820    0.22650   1.00
O2       0.72650    0.66180    0.27350   1.00
O2       0.66180    0.72650    0.27350   1.00
O2       0.72650    0.72650    0.33820   1.00
O2       0.83820    0.77350    0.27350   1.00
O2       0.77350    0.83820    0.27350   1.00
O2       0.77350    0.77350    0.33820   1.00
C1       0.75000    0.75000    0.14480   1.00
C1       0.75000    0.64480    0.25000   1.00
C1       0.85520    0.75000    0.25000   1.00
C1       0.64480    0.75000    0.25000   1.00
C1       0.75000    0.85520    0.25000   1.00
C1       0.75000    0.75000    0.35520   1.00
O1       0.75000    0.25000    0.75000   1.00
Zn1      0.78280    0.21720    0.71720   1.00
Zn1      0.71720    0.28280    0.71720   1.00
Zn1      0.71720    0.21720    0.78280   1.00
Zn1      0.78280    0.28280    0.78280   1.00
O2       0.77350    0.22650    0.66180   1.00
O2       0.77350    0.16180    0.72650   1.00
O2       0.83820    0.22650    0.72650   1.00
O2       0.72650    0.27350    0.66180   1.00
O2       0.66180    0.27350    0.72650   1.00
O2       0.72650    0.33820    0.72650   1.00
O2       0.72650    0.16180    0.77350   1.00
O2       0.66180    0.22650    0.77350   1.00
O2       0.72650    0.22650    0.83820   1.00
O2       0.83820    0.27350    0.77350   1.00
O2       0.77350    0.33820    0.77350   1.00
O2       0.77350    0.27350    0.83820   1.00
C1       0.75000    0.25000    0.64480   1.00
C1       0.75000    0.14480    0.75000   1.00
C1       0.85520    0.25000    0.75000   1.00
C1       0.64480    0.25000    0.75000   1.00
C1       0.75000    0.35520    0.75000   1.00
C1       0.75000    0.25000    0.85520   1.00
O1       0.25000    0.75000    0.75000   1.00
Zn1      0.28280    0.71720    0.71720   1.00
Zn1      0.21720    0.78280    0.71720   1.00
Zn1      0.21720    0.71720    0.78280   1.00
Zn1      0.28280    0.78280    0.78280   1.00
O2       0.27350    0.72650    0.66180   1.00
O2       0.27350    0.66180    0.72650   1.00
O2       0.33820    0.72650    0.72650   1.00
O2       0.22650    0.77350    0.66180   1.00
O2       0.16180    0.77350    0.72650   1.00
O2       0.22650    0.83820    0.72650   1.00
O2       0.22650    0.66180    0.77350   1.00
O2       0.16180    0.72650    0.77350   1.00
O2       0.22650    0.72650    0.83820   1.00
O2       0.33820    0.77350    0.77350   1.00
O2       0.27350    0.83820    0.77350   1.00
O2       0.27350    0.77350    0.83820   1.00
C1       0.25000    0.75000    0.64480   1.00
C1       0.25000    0.64480    0.75000   1.00
C1       0.35520    0.75000    0.75000   1.00
C1       0.14480    0.75000    0.75000   1.00
C1       0.25000    0.85520    0.75000   1.00
C1       0.25000    0.75000    0.85520   1.00
O1       0.91500    0.91500    0.91500   1.00
Zn1      0.88220    0.94780    0.94780   1.00
Zn1      0.94780    0.88220    0.94780   1.00
Zn1      0.94780    0.94780    0.88220   1.00
Zn1      0.88220    0.88220    0.88220   1.00
O2       0.89150    0.93850    1.00320   1.00
O2       0.89150    1.00320    0.93850   1.00
O2       0.82680    0.93850    0.93850   1.00
O2       0.93850    0.89150    1.00320   1.00
O2       1.00320    0.89150    0.93850   1.00
O2       0.93850    0.82680    0.93850   1.00
O2       0.93850    1.00320    0.89150   1.00
O2       1.00320    0.93850    0.89150   1.00
O2       0.93850    0.93850    0.82680   1.00
O2       0.82680    0.89150    0.89150   1.00
O2       0.89150    0.82680    0.89150   1.00
O2       0.89150    0.89150    0.82680   1.00
C1       0.91500    0.91500    1.02020   1.00
C1       0.91500    1.02020    0.91500   1.00
C1       0.80980    0.91500    0.91500   1.00
C1       1.02020    0.91500    0.91500   1.00
C1       0.91500    0.80980    0.91500   1.00
C1       0.91500    0.91500    0.80980   1.00
O1       0.41500    0.41500    0.91500   1.00
Zn1      0.38220    0.44780    0.94780   1.00
Zn1      0.44780    0.38220    0.94780   1.00
Zn1      0.44780    0.44780    0.88220   1.00
Zn1      0.38220    0.38220    0.88220   1.00
O2       0.39150    0.43850    1.00320   1.00
O2       0.39150    0.50320    0.93850   1.00
O2       0.32680    0.43850    0.93850   1.00
O2       0.43850    0.39150    1.00320   1.00
O2       0.50320    0.39150    0.93850   1.00
O2       0.43850    0.32680    0.93850   1.00
O2       0.43850    0.50320    0.89150   1.00
O2       0.50320    0.43850    0.89150   1.00
O2       0.43850    0.43850    0.82680   1.00
O2       0.32680    0.39150    0.89150   1.00
O2       0.39150    0.32680    0.89150   1.00
O2       0.39150    0.39150    0.82680   1.00
C1       0.41500    0.41500    1.02020   1.00
C1       0.41500    0.52020    0.91500   1.00
C1       0.30980    0.41500    0.91500   1.00
C1       0.52020    0.41500    0.91500   1.00
C1       0.41500    0.30980    0.91500   1.00
C1       0.41500    0.41500    0.80980   1.00
O1       0.41500    0.91500    0.41500   1.00
Zn1      0.38220    0.94780    0.44780   1.00
Zn1      0.44780    0.88220    0.44780   1.00
Zn1      0.44780    0.94780    0.38220   1.00
Zn1      0.38220    0.88220    0.38220   1.00
O2       0.39150    0.93850    0.50320   1.00
O2       0.39150    1.00320    0.43850   1.00
O2       0.32680    0.93850    0.43850   1.00
O2       0.43850    0.89150    0.50320   1.00
O2       0.50320    0.89150    0.43850   1.00
O2       0.43850    0.82680    0.43850   1.00
O2       0.43850    1.00320    0.39150   1.00
O2       0.50320    0.93850    0.39150   1.00
O2       0.43850    0.93850    0.32680   1.00
O2       0.32680    0.89150    0.39150   1.00
O2       0.39150    0.82680    0.39150   1.00
O2       0.39150    0.89150    0.32680   1.00
C1       0.41500    0.91500    0.52020   1.00
C1       0.41500    1.02020    0.41500   1.00
C1       0.30980    0.91500    0.41500   1.00
C1       0.52020    0.91500    0.41500   1.00
C1       0.41500    0.80980    0.41500   1.00
C1       0.41500    0.91500    0.30980   1.00
O1       0.91500    0.41500    0.41500   1.00
Zn1      0.88220    0.44780    0.44780   1.00
Zn1      0.94780    0.38220    0.44780   1.00
Zn1      0.94780    0.44780    0.38220   1.00
Zn1      0.88220    0.38220    0.38220   1.00
O2       0.89150    0.43850    0.50320   1.00
O2       0.89150    0.50320    0.43850   1.00
O2       0.82680    0.43850    0.43850   1.00
O2       0.93850    0.39150    0.50320   1.00
O2       1.00320    0.39150    0.43850   1.00
O2       0.93850    0.32680    0.43850   1.00
O2       0.93850    0.50320    0.39150   1.00
O2       1.00320    0.43850    0.39150   1.00
O2       0.93850    0.43850    0.32680   1.00
O2       0.82680    0.39150    0.39150   1.00
O2       0.89150    0.32680    0.39150   1.00
O2       0.89150    0.39150    0.32680   1.00
C1       0.91500    0.41500    0.52020   1.00
C1       0.91500    0.52020    0.41500   1.00
C1       0.80980    0.41500    0.41500   1.00
C1       1.02020    0.41500    0.41500   1.00
C1       0.91500    0.30980    0.41500   1.00
C1       0.91500    0.41500    0.30980   1.00
O1       0.41500    0.41500    0.41500   1.00
Zn1      0.44780    0.38220    0.38220   1.00
Zn1      0.38220    0.44780    0.38220   1.00
Zn1      0.38220    0.38220    0.44780   1.00
Zn1      0.44780    0.44780    0.44780   1.00
O2       0.43850    0.39150    0.32680   1.00
O2       0.43850    0.32680    0.39150   1.00
O2       0.50320    0.39150    0.39150   1.00
O2       0.39150    0.43850    0.32680   1.00
O2       0.32680    0.43850    0.39150   1.00
O2       0.39150    0.50320    0.39150   1.00
O2       0.39150    0.32680    0.43850   1.00
O2       0.32680    0.39150    0.43850   1.00
O2       0.39150    0.39150    0.50320   1.00
O2       0.50320    0.43850    0.43850   1.00
O2       0.43850    0.50320    0.43850   1.00
O2       0.43850    0.43850    0.50320   1.00
C1       0.41500    0.41500    0.30980   1.00
C1       0.41500    0.30980    0.41500   1.00
C1       0.52020    0.41500    0.41500   1.00
C1       0.30980    0.41500    0.41500   1.00
C1       0.41500    0.52020    0.41500   1.00
C1       0.41500    0.41500    0.52020   1.00
O1       0.91500    0.91500    0.41500   1.00
Zn1      0.94780    0.88220    0.38220   1.00
Zn1      0.88220    0.94780    0.38220   1.00
Zn1      0.88220    0.88220    0.44780   1.00
Zn1      0.94780    0.94780    0.44780   1.00
O2       0.93850    0.89150    0.32680   1.00
O2       0.93850    0.82680    0.39150   1.00
O2       1.00320    0.89150    0.39150   1.00
O2       0.89150    0.93850    0.32680   1.00
O2       0.82680    0.93850    0.39150   1.00
O2       0.89150    1.00320    0.39150   1.00
O2       0.89150    0.82680    0.43850   1.00
O2       0.82680    0.89150    0.43850   1.00
O2       0.89150    0.89150    0.50320   1.00
O2       1.00320    0.93850    0.43850   1.00
O2       0.93850    1.00320    0.43850   1.00
O2       0.93850    0.93850    0.50320   1.00
C1       0.91500    0.91500    0.30980   1.00
C1       0.91500    0.80980    0.41500   1.00
C1       1.02020    0.91500    0.41500   1.00
C1       0.80980    0.91500    0.41500   1.00
C1       0.91500    1.02020    0.41500   1.00
C1       0.91500    0.91500    0.52020   1.00
O1       0.91500    0.41500    0.91500   1.00
Zn1      0.94780    0.38220    0.88220   1.00
Zn1      0.88220    0.44780    0.88220   1.00
Zn1      0.88220    0.38220    0.94780   1.00
Zn1      0.94780    0.44780    0.94780   1.00
O2       0.93850    0.39150    0.82680   1.00
O2       0.93850    0.32680    0.89150   1.00
O2       1.00320    0.39150    0.89150   1.00
O2       0.89150    0.43850    0.82680   1.00
O2       0.82680    0.43850    0.89150   1.00
O2       0.89150    0.50320    0.89150   1.00
O2       0.89150    0.32680    0.93850   1.00
O2       0.82680    0.39150    0.93850   1.00
O2       0.89150    0.39150    1.00320   1.00
O2       1.00320    0.43850    0.93850   1.00
O2       0.93850    0.50320    0.93850   1.00
O2       0.93850    0.43850    1.00320   1.00
C1       0.91500    0.41500    0.80980   1.00
C1       0.91500    0.30980    0.91500   1.00
C1       1.02020    0.41500    0.91500   1.00
C1       0.80980    0.41500    0.91500   1.00
C1       0.91500    0.52020    0.91500   1.00
C1       0.91500    0.41500    1.02020   1.00
O1       0.41500    0.91500    0.91500   1.00
Zn1      0.44780    0.88220    0.88220   1.00
Zn1      0.38220    0.94780    0.88220   1.00
Zn1      0.38220    0.88220    0.94780   1.00
Zn1      0.44780    0.94780    0.94780   1.00
O2       0.43850    0.89150    0.82680   1.00
O2       0.43850    0.82680    0.89150   1.00
O2       0.50320    0.89150    0.89150   1.00
O2       0.39150    0.93850    0.82680   1.00
O2       0.32680    0.93850    0.89150   1.00
O2       0.39150    1.00320    0.89150   1.00
O2       0.39150    0.82680    0.93850   1.00
O2       0.32680    0.89150    0.93850   1.00
O2       0.39150    0.89150    1.00320   1.00
O2       0.50320    0.93850    0.93850   1.00
O2       0.43850    1.00320    0.93850   1.00
O2       0.43850    0.93850    1.00320   1.00
C1       0.41500    0.91500    0.80980   1.00
C1       0.41500    0.80980    0.91500   1.00
C1       0.52020    0.91500    0.91500   1.00
C1       0.30980    0.91500    0.91500   1.00
C1       0.41500    1.02020    0.91500   1.00
C1       0.41500    0.91500    1.02020   1.00
C4       0.75008    0.75018    0.97915   1.00
C4       0.74992    0.74982    1.02085   1.00
C3a      0.74019    0.78436    0.95746   1.00
C3       0.78137    0.76546    1.04232   1.00
C3       0.76021    0.71655    0.95768   1.00
C3a      0.71824    0.73363    1.04254   1.00
C2       0.75008    0.74997    0.89488   1.00
C2       0.75007    0.74996    1.10512   1.00
C3       0.74027    0.78368    0.91595   1.00
C3       0.78135    0.76562    1.08363   1.00
C3       0.76008    0.71646    0.91637   1.00
C3       0.71879    0.73403    1.08405   1.00
C5       0.72880    0.82190    0.97772   1.00
H1       0.80595    0.77801    1.02691   1.00
H1       0.73254    0.80968    0.89979   1.00
H1       0.80594    0.77810    1.09901   1.00
H1       0.76781    0.68998    0.90099   1.00
H1       0.69455    0.72187    1.10021   1.00
C5       0.68307    0.71623    1.02228   1.00
H1       0.76789    0.69004    0.97309   1.00
H2       0.65780    0.71577    1.04256   1.00
H2       0.67418    0.73487    0.99731   1.00
H2       0.71183    0.84064    0.95744   1.00
H2       0.70912    0.81563    1.00269   1.00
N1       0.69133    0.67664    1.00857   1.00
C6       0.69841    0.64535    1.03073   1.00
C6       0.69214    0.66463    0.97154   1.00
C6       0.70433    0.61305    1.00759   1.00
C6       0.70033    0.62531    0.96995   1.00
H3       0.69958    0.64588    1.06197   1.00
H3       0.68737    0.68335    0.94700   1.00
H3       0.71080    0.58382    1.01713   1.00
H3       0.70311    0.60756    0.94425   1.00
N1       0.76331    0.84299    0.99143   1.00
C6       0.77261    0.85062    1.02846   1.00
C6       0.79096    0.85925    0.96927   1.00
C6       0.80688    0.87157    1.03005   1.00
C6       0.81856    0.87705    0.99241   1.00
H3       0.75571    0.84128    1.05300   1.00
H3       0.79138    0.85803    0.93803   1.00
H3       0.82173    0.88169    1.05575   1.00
H3       0.84429    0.89234    0.98287   1.00
C4       0.75018    0.97915    0.75008   1.00
C4       0.74982    1.02085    0.74992   1.00
C3a      0.78436    0.95746    0.74019   1.00
C3       0.76546    1.04232    0.78137   1.00
C3       0.71655    0.95768    0.76021   1.00
C3a      0.73363    1.04254    0.71824   1.00
C2       0.74997    0.89488    0.75008   1.00
C2       0.74996    1.10512    0.75007   1.00
C3       0.78368    0.91595    0.74027   1.00
C3       0.76562    1.08363    0.78135   1.00
C3       0.71646    0.91637    0.76008   1.00
C3       0.73403    1.08405    0.71879   1.00
C5       0.82190    0.97772    0.72880   1.00
H1       0.77801    1.02691    0.80595   1.00
H1       0.80968    0.89979    0.73254   1.00
H1       0.77810    1.09901    0.80594   1.00
H1       0.68998    0.90099    0.76781   1.00
H1       0.72187    1.10021    0.69455   1.00
C5       0.71623    1.02228    0.68307   1.00
H1       0.69004    0.97309    0.76789   1.00
H2       0.71577    1.04256    0.65780   1.00
H2       0.73487    0.99731    0.67418   1.00
H2       0.84064    0.95744    0.71183   1.00
H2       0.81563    1.00269    0.70912   1.00
N1       0.67664    1.00857    0.69133   1.00
C6       0.64535    1.03073    0.69841   1.00
C6       0.66463    0.97154    0.69214   1.00
C6       0.61305    1.00759    0.70433   1.00
C6       0.62531    0.96995    0.70033   1.00
H3       0.64588    1.06197    0.69958   1.00
H3       0.68335    0.94700    0.68737   1.00
H3       0.58382    1.01713    0.71080   1.00
H3       0.60756    0.94425    0.70311   1.00
N1       0.84299    0.99143    0.76331   1.00
C6       0.85062    1.02846    0.77261   1.00
C6       0.85925    0.96927    0.79096   1.00
C6       0.87157    1.03005    0.80688   1.00
C6       0.87705    0.99241    0.81856   1.00
H3       0.84128    1.05300    0.75571   1.00
H3       0.85803    0.93803    0.79138   1.00
H3       0.88169    1.05575    0.82173   1.00
H3       0.89234    0.98287    0.84429   1.00
C4       0.52085    0.75008    0.74982   1.00
C4       0.47915    0.74992    0.75018   1.00
C3a      0.54254    0.74019    0.71564   1.00
C3       0.45768    0.78137    0.73454   1.00
C3       0.54232    0.76021    0.78345   1.00
C3a      0.45746    0.71824    0.76637   1.00
C2       0.60512    0.75008    0.75003   1.00
C2       0.39488    0.75007    0.75004   1.00
C3       0.58405    0.74027    0.71632   1.00
C3       0.41637    0.78135    0.73438   1.00
C3       0.58363    0.76008    0.78354   1.00
C3       0.41595    0.71879    0.76597   1.00
C5       0.52228    0.72880    0.67810   1.00
H1       0.47309    0.80595    0.72199   1.00
H1       0.60021    0.73254    0.69032   1.00
H1       0.40099    0.80594    0.72190   1.00
H1       0.59901    0.76781    0.81002   1.00
H1       0.39979    0.69455    0.77813   1.00
C5       0.47772    0.68307    0.78377   1.00
H1       0.52691    0.76789    0.80996   1.00
H2       0.45744    0.65780    0.78423   1.00
H2       0.50269    0.67418    0.76513   1.00
H2       0.54256    0.71183    0.65936   1.00
H2       0.49731    0.70912    0.68437   1.00
N1       0.49143    0.69133    0.82336   1.00
C6       0.46927    0.69841    0.85465   1.00
C6       0.52846    0.69214    0.83537   1.00
C6       0.49241    0.70433    0.88695   1.00
C6       0.53005    0.70033    0.87469   1.00
H3       0.43803    0.69958    0.85412   1.00
H3       0.55300    0.68737    0.81665   1.00
H3       0.48287    0.71080    0.91618   1.00
H3       0.55575    0.70311    0.89244   1.00
N1       0.50857    0.76331    0.65701   1.00
C6       0.47154    0.77261    0.64938   1.00
C6       0.53073    0.79096    0.64075   1.00
C6       0.46995    0.80688    0.62843   1.00
C6       0.50759    0.81856    0.62295   1.00
H3       0.44700    0.75571    0.65872   1.00
H3       0.56197    0.79138    0.64197   1.00
H3       0.44425    0.82173    0.61831   1.00
H3       0.51713    0.84429    0.60766   1.00
C4       0.97915    0.75008    0.75018   1.00
C4       1.02085    0.74992    0.74982   1.00
C3a      0.95746    0.74019    0.78436   1.00
C3       1.04232    0.78137    0.76546   1.00
C3       0.95768    0.76021    0.71655   1.00
C3a      1.04254    0.71824    0.73363   1.00
C2       0.89488    0.75008    0.74997   1.00
C2       1.10512    0.75007    0.74996   1.00
C3       0.91595    0.74027    0.78368   1.00
C3       1.08363    0.78135    0.76562   1.00
C3       0.91637    0.76008    0.71646   1.00
C3       1.08405    0.71879    0.73403   1.00
C5       0.97772    0.72880    0.82190   1.00
H1       1.02691    0.80595    0.77801   1.00
H1       0.89979    0.73254    0.80968   1.00
H1       1.09901    0.80594    0.77810   1.00
H1       0.90099    0.76781    0.68998   1.00
H1       1.10021    0.69455    0.72187   1.00
C5       1.02228    0.68307    0.71623   1.00
H1       0.97309    0.76789    0.69004   1.00
H2       1.04256    0.65780    0.71577   1.00
H2       0.99731    0.67418    0.73487   1.00
H2       0.95744    0.71183    0.84064   1.00
H2       1.00269    0.70912    0.81563   1.00
N1       1.00857    0.69133    0.67664   1.00
C6       1.03073    0.69841    0.64535   1.00
C6       0.97154    0.69214    0.66463   1.00
C6       1.00759    0.70433    0.61305   1.00
C6       0.96995    0.70033    0.62531   1.00
H3       1.06197    0.69958    0.64588   1.00
H3       0.94700    0.68737    0.68335   1.00
H3       1.01713    0.71080    0.58382   1.00
H3       0.94425    0.70311    0.60756   1.00
N1       0.99143    0.76331    0.84299   1.00
C6       1.02846    0.77261    0.85062   1.00
C6       0.96927    0.79096    0.85925   1.00
C6       1.03005    0.80688    0.87157   1.00
C6       0.99241    0.81856    0.87705   1.00
H3       1.05300    0.75571    0.84128   1.00
H3       0.93803    0.79138    0.85803   1.00
H3       1.05575    0.82173    0.88169   1.00
H3       0.98287    0.84429    0.89234   1.00
C4       0.74982    0.52085    0.75008   1.00
C4       0.75018    0.47915    0.74992   1.00
C3a      0.71564    0.54254    0.74019   1.00
C3       0.73454    0.45768    0.78137   1.00
C3       0.78345    0.54232    0.76021   1.00
C3a      0.76637    0.45746    0.71824   1.00
C2       0.75003    0.60512    0.75008   1.00
C2       0.75004    0.39488    0.75007   1.00
C3       0.71632    0.58405    0.74027   1.00
C3       0.73438    0.41637    0.78135   1.00
C3       0.78354    0.58363    0.76008   1.00
C3       0.76597    0.41595    0.71879   1.00
C5       0.67810    0.52228    0.72880   1.00
H1       0.72199    0.47309    0.80595   1.00
H1       0.69032    0.60021    0.73254   1.00
H1       0.72190    0.40099    0.80594   1.00
H1       0.81002    0.59901    0.76781   1.00
H1       0.77813    0.39979    0.69455   1.00
C5       0.78377    0.47772    0.68307   1.00
H1       0.80996    0.52691    0.76789   1.00
H2       0.78423    0.45744    0.65780   1.00
H2       0.76513    0.50269    0.67418   1.00
H2       0.65936    0.54256    0.71183   1.00
H2       0.68437    0.49731    0.70912   1.00
N1       0.82336    0.49143    0.69133   1.00
C6       0.85465    0.46927    0.69841   1.00
C6       0.83537    0.52846    0.69214   1.00
C6       0.88695    0.49241    0.70433   1.00
C6       0.87469    0.53005    0.70033   1.00
H3       0.85412    0.43803    0.69958   1.00
H3       0.81665    0.55300    0.68737   1.00
H3       0.91618    0.48287    0.71080   1.00
H3       0.89244    0.55575    0.70311   1.00
N1       0.65701    0.50857    0.76331   1.00
C6       0.64938    0.47154    0.77261   1.00
C6       0.64075    0.53073    0.79096   1.00
C6       0.62843    0.46995    0.80688   1.00
C6       0.62295    0.50759    0.81856   1.00
H3       0.65872    0.44700    0.75571   1.00
H3       0.64197    0.56197    0.79138   1.00
H3       0.61831    0.44425    0.82173   1.00
H3       0.60766    0.51713    0.84429   1.00
C4       0.75008    0.74982    0.52085   1.00
C4       0.74992    0.75018    0.47915   1.00
C3a      0.74019    0.71564    0.54254   1.00
C3       0.78137    0.73454    0.45768   1.00
C3       0.76021    0.78345    0.54232   1.00
C3a      0.71824    0.76637    0.45746   1.00
C2       0.75008    0.75003    0.60512   1.00
C2       0.75007    0.75004    0.39488   1.00
C3       0.74027    0.71632    0.58405   1.00
C3       0.78135    0.73438    0.41637   1.00
C3       0.76008    0.78354    0.58363   1.00
C3       0.71879    0.76597    0.41595   1.00
C5       0.72880    0.67810    0.52228   1.00
H1       0.80595    0.72199    0.47309   1.00
H1       0.73254    0.69032    0.60021   1.00
H1       0.80594    0.72190    0.40099   1.00
H1       0.76781    0.81002    0.59901   1.00
H1       0.69455    0.77813    0.39979   1.00
C5       0.68307    0.78377    0.47772   1.00
H1       0.76789    0.80996    0.52691   1.00
H2       0.65780    0.78423    0.45744   1.00
H2       0.67418    0.76513    0.50269   1.00
H2       0.71183    0.65936    0.54256   1.00
H2       0.70912    0.68437    0.49731   1.00
N1       0.69133    0.82336    0.49143   1.00
C6       0.69841    0.85465    0.46927   1.00
C6       0.69214    0.83537    0.52846   1.00
C6       0.70433    0.88695    0.49241   1.00
C6       0.70033    0.87469    0.53005   1.00
H3       0.69958    0.85412    0.43803   1.00
H3       0.68737    0.81665    0.55300   1.00
H3       0.71080    0.91618    0.48287   1.00
H3       0.70311    0.89244    0.55575   1.00
N1       0.76331    0.65701    0.50857   1.00
C6       0.77261    0.64938    0.47154   1.00
C6       0.79096    0.64075    0.53073   1.00
C6       0.80688    0.62843    0.46995   1.00
C6       0.81856    0.62295    0.50759   1.00
H3       0.75571    0.65872    0.44700   1.00
H3       0.79138    0.64197    0.56197   1.00
H3       0.82173    0.61831    0.44425   1.00
H3       0.84429    0.60766    0.51713   1.00
C4       0.25008    0.25018    0.97915   1.00
C4       0.24992    0.24982    1.02085   1.00
C3a      0.24019    0.28436    0.95746   1.00
C3       0.28137    0.26546    1.04232   1.00
C3       0.26021    0.21655    0.95768   1.00
C3a      0.21824    0.23363    1.04254   1.00
C2       0.25008    0.24997    0.89488   1.00
C2       0.25007    0.24996    1.10512   1.00
C3       0.24027    0.28368    0.91595   1.00
C3       0.28135    0.26562    1.08363   1.00
C3       0.26008    0.21646    0.91637   1.00
C3       0.21879    0.23403    1.08405   1.00
C5       0.22880    0.32190    0.97772   1.00
H1       0.30595    0.27801    1.02691   1.00
H1       0.23254    0.30968    0.89979   1.00
H1       0.30594    0.27810    1.09901   1.00
H1       0.26781    0.18998    0.90099   1.00
H1       0.19455    0.22187    1.10021   1.00
C5       0.18307    0.21623    1.02228   1.00
H1       0.26789    0.19004    0.97309   1.00
H2       0.15780    0.21577    1.04256   1.00
H2       0.17418    0.23487    0.99731   1.00
H2       0.21183    0.34064    0.95744   1.00
H2       0.20912    0.31563    1.00269   1.00
N1       0.19133    0.17664    1.00857   1.00
C6       0.19841    0.14535    1.03073   1.00
C6       0.19214    0.16463    0.97154   1.00
C6       0.20433    0.11305    1.00759   1.00
C6       0.20033    0.12531    0.96995   1.00
H3       0.19958    0.14588    1.06197   1.00
H3       0.18737    0.18335    0.94700   1.00
H3       0.21080    0.08382    1.01713   1.00
H3       0.20311    0.10756    0.94425   1.00
N1       0.26331    0.34299    0.99143   1.00
C6       0.27261    0.35062    1.02846   1.00
C6       0.29096    0.35925    0.96927   1.00
C6       0.30688    0.37157    1.03005   1.00
C6       0.31856    0.37705    0.99241   1.00
H3       0.25571    0.34128    1.05300   1.00
H3       0.29138    0.35803    0.93803   1.00
H3       0.32173    0.38169    1.05575   1.00
H3       0.34429    0.39234    0.98287   1.00
C4       0.25018    0.47915    0.75008   1.00
C4       0.24982    0.52085    0.74992   1.00
C3a      0.28436    0.45746    0.74019   1.00
C3       0.26546    0.54232    0.78137   1.00
C3       0.21655    0.45768    0.76021   1.00
C3a      0.23363    0.54254    0.71824   1.00
C2       0.24997    0.39488    0.75008   1.00
C2       0.24996    0.60512    0.75007   1.00
C3       0.28368    0.41595    0.74027   1.00
C3       0.26562    0.58363    0.78135   1.00
C3       0.21646    0.41637    0.76008   1.00
C3       0.23403    0.58405    0.71879   1.00
C5       0.32190    0.47772    0.72880   1.00
H1       0.27801    0.52691    0.80595   1.00
H1       0.30968    0.39979    0.73254   1.00
H1       0.27810    0.59901    0.80594   1.00
H1       0.18998    0.40099    0.76781   1.00
H1       0.22187    0.60021    0.69455   1.00
C5       0.21623    0.52228    0.68307   1.00
H1       0.19004    0.47309    0.76789   1.00
H2       0.21577    0.54256    0.65780   1.00
H2       0.23487    0.49731    0.67418   1.00
H2       0.34064    0.45744    0.71183   1.00
H2       0.31563    0.50269    0.70912   1.00
N1       0.17664    0.50857    0.69133   1.00
C6       0.14535    0.53073    0.69841   1.00
C6       0.16463    0.47154    0.69214   1.00
C6       0.11305    0.50759    0.70433   1.00
C6       0.12531    0.46995    0.70033   1.00
H3       0.14588    0.56197    0.69958   1.00
H3       0.18335    0.44700    0.68737   1.00
H3       0.08382    0.51713    0.71080   1.00
H3       0.10756    0.44425    0.70311   1.00
N1       0.34299    0.49143    0.76331   1.00
C6       0.35062    0.52846    0.77261   1.00
C6       0.35925    0.46927    0.79096   1.00
C6       0.37157    0.53005    0.80688   1.00
C6       0.37705    0.49241    0.81856   1.00
H3       0.34128    0.55300    0.75571   1.00
H3       0.35803    0.43803    0.79138   1.00
H3       0.38169    0.55575    0.82173   1.00
H3       0.39234    0.48287    0.84429   1.00
C4       0.02085    0.25008    0.74982   1.00
C4       -0.02085   0.24992    0.75018   1.00
C3a      0.04254    0.24019    0.71564   1.00
C3       -0.04232   0.28137    0.73454   1.00
C3       0.04232    0.26021    0.78345   1.00
C3a      -0.04254   0.21824    0.76637   1.00
C2       0.10512    0.25008    0.75003   1.00
C2       -0.10512   0.25007    0.75004   1.00
C3       0.08405    0.24027    0.71632   1.00
C3       -0.08363   0.28135    0.73438   1.00
C3       0.08363    0.26008    0.78354   1.00
C3       -0.08405   0.21879    0.76597   1.00
C5       0.02228    0.22880    0.67810   1.00
H1       -0.02691   0.30595    0.72199   1.00
H1       0.10021    0.23254    0.69032   1.00
H1       -0.09901   0.30594    0.72190   1.00
H1       0.09901    0.26781    0.81002   1.00
H1       -0.10021   0.19455    0.77813   1.00
C5       -0.02228   0.18307    0.78377   1.00
H1       0.02691    0.26789    0.80996   1.00
H2       -0.04256   0.15780    0.78423   1.00
H2       0.00269    0.17418    0.76513   1.00
H2       0.04256    0.21183    0.65936   1.00
H2       -0.00269   0.20912    0.68437   1.00
N1       -0.00857   0.19133    0.82336   1.00
C6       -0.03073   0.19841    0.85465   1.00
C6       0.02846    0.19214    0.83537   1.00
C6       -0.00759   0.20433    0.88695   1.00
C6       0.03005    0.20033    0.87469   1.00
H3       -0.06197   0.19958    0.85412   1.00
H3       0.05300    0.18737    0.81665   1.00
H3       -0.01713   0.21080    0.91618   1.00
H3       0.05575    0.20311    0.89244   1.00
N1       0.00857    0.26331    0.65701   1.00
C6       -0.02846   0.27261    0.64938   1.00
C6       0.03073    0.29096    0.64075   1.00
C6       -0.03005   0.30688    0.62843   1.00
C6       0.00759    0.31856    0.62295   1.00
H3       -0.05300   0.25571    0.65872   1.00
H3       0.06197    0.29138    0.64197   1.00
H3       -0.05575   0.32173    0.61831   1.00
H3       0.01713    0.34429    0.60766   1.00
C4       0.47915    0.25008    0.75018   1.00
C4       0.52085    0.24992    0.74982   1.00
C3a      0.45746    0.24019    0.78436   1.00
C3       0.54232    0.28137    0.76546   1.00
C3       0.45768    0.26021    0.71655   1.00
C3a      0.54254    0.21824    0.73363   1.00
C2       0.39488    0.25008    0.74997   1.00
C2       0.60512    0.25007    0.74996   1.00
C3       0.41595    0.24027    0.78368   1.00
C3       0.58363    0.28135    0.76562   1.00
C3       0.41637    0.26008    0.71646   1.00
C3       0.58405    0.21879    0.73403   1.00
C5       0.47772    0.22880    0.82190   1.00
H1       0.52691    0.30595    0.77801   1.00
H1       0.39979    0.23254    0.80968   1.00
H1       0.59901    0.30594    0.77810   1.00
H1       0.40099    0.26781    0.68998   1.00
H1       0.60021    0.19455    0.72187   1.00
C5       0.52228    0.18307    0.71623   1.00
H1       0.47309    0.26789    0.69004   1.00
H2       0.54256    0.15780    0.71577   1.00
H2       0.49731    0.17418    0.73487   1.00
H2       0.45744    0.21183    0.84064   1.00
H2       0.50269    0.20912    0.81563   1.00
N1       0.50857    0.19133    0.67664   1.00
C6       0.53073    0.19841    0.64535   1.00
C6       0.47154    0.19214    0.66463   1.00
C6       0.50759    0.20433    0.61305   1.00
C6       0.46995    0.20033    0.62531   1.00
H3       0.56197    0.19958    0.64588   1.00
H3       0.44700    0.18737    0.68335   1.00
H3       0.51713    0.21080    0.58382   1.00
H3       0.44425    0.20311    0.60756   1.00
N1       0.49143    0.26331    0.84299   1.00
C6       0.52846    0.27261    0.85062   1.00
C6       0.46927    0.29096    0.85925   1.00
C6       0.53005    0.30688    0.87157   1.00
C6       0.49241    0.31856    0.87705   1.00
H3       0.55300    0.25571    0.84128   1.00
H3       0.43803    0.29138    0.85803   1.00
H3       0.55575    0.32173    0.88169   1.00
H3       0.48287    0.34429    0.89234   1.00
C4       0.24982    0.02085    0.75008   1.00
C4       0.25018    -0.02085   0.74992   1.00
C3a      0.21564    0.04254    0.74019   1.00
C3       0.23454    -0.04232   0.78137   1.00
C3       0.28345    0.04232    0.76021   1.00
C3a      0.26637    -0.04254   0.71824   1.00
C2       0.25003    0.10512    0.75008   1.00
C2       0.25004    -0.10512   0.75007   1.00
C3       0.21632    0.08405    0.74027   1.00
C3       0.23438    -0.08363   0.78135   1.00
C3       0.28354    0.08363    0.76008   1.00
C3       0.26597    -0.08405   0.71879   1.00
C5       0.17810    0.02228    0.72880   1.00
H1       0.22199    -0.02691   0.80595   1.00
H1       0.19032    0.10021    0.73254   1.00
H1       0.22190    -0.09901   0.80594   1.00
H1       0.31002    0.09901    0.76781   1.00
H1       0.27813    -0.10021   0.69455   1.00
C5       0.28377    -0.02228   0.68307   1.00
H1       0.30996    0.02691    0.76789   1.00
H2       0.28423    -0.04256   0.65780   1.00
H2       0.26513    0.00269    0.67418   1.00
H2       0.15936    0.04256    0.71183   1.00
H2       0.18437    -0.00269   0.70912   1.00
N1       0.32336    -0.00857   0.69133   1.00
C6       0.35465    -0.03073   0.69841   1.00
C6       0.33537    0.02846    0.69214   1.00
C6       0.38695    -0.00759   0.70433   1.00
C6       0.37469    0.03005    0.70033   1.00
H3       0.35412    -0.06197   0.69958   1.00
H3       0.31665    0.05300    0.68737   1.00
H3       0.41618    -0.01713   0.71080   1.00
H3       0.39244    0.05575    0.70311   1.00
N1       0.15701    0.00857    0.76331   1.00
C6       0.14938    -0.02846   0.77261   1.00
C6       0.14075    0.03073    0.79096   1.00
C6       0.12843    -0.03005   0.80688   1.00
C6       0.12295    0.00759    0.81856   1.00
H3       0.15872    -0.05300   0.75571   1.00
H3       0.14197    0.06197    0.79138   1.00
H3       0.11831    -0.05575   0.82173   1.00
H3       0.10766    0.01713    0.84429   1.00
C4       0.25008    0.24982    0.52085   1.00
C4       0.24992    0.25018    0.47915   1.00
C3a      0.24019    0.21564    0.54254   1.00
C3       0.28137    0.23454    0.45768   1.00
C3       0.26021    0.28345    0.54232   1.00
C3a      0.21824    0.26637    0.45746   1.00
C2       0.25008    0.25003    0.60512   1.00
C2       0.25007    0.25004    0.39488   1.00
C3       0.24027    0.21632    0.58405   1.00
C3       0.28135    0.23438    0.41637   1.00
C3       0.26008    0.28354    0.58363   1.00
C3       0.21879    0.26597    0.41595   1.00
C5       0.22880    0.17810    0.52228   1.00
H1       0.30595    0.22199    0.47309   1.00
H1       0.23254    0.19032    0.60021   1.00
H1       0.30594    0.22190    0.40099   1.00
H1       0.26781    0.31002    0.59901   1.00
H1       0.19455    0.27813    0.39979   1.00
C5       0.18307    0.28377    0.47772   1.00
H1       0.26789    0.30996    0.52691   1.00
H2       0.15780    0.28423    0.45744   1.00
H2       0.17418    0.26513    0.50269   1.00
H2       0.21183    0.15936    0.54256   1.00
H2       0.20912    0.18437    0.49731   1.00
N1       0.19133    0.32336    0.49143   1.00
C6       0.19841    0.35465    0.46927   1.00
C6       0.19214    0.33537    0.52846   1.00
C6       0.20433    0.38695    0.49241   1.00
C6       0.20033    0.37469    0.53005   1.00
H3       0.19958    0.35412    0.43803   1.00
H3       0.18737    0.31665    0.55300   1.00
H3       0.21080    0.41618    0.48287   1.00
H3       0.20311    0.39244    0.55575   1.00
N1       0.26331    0.15701    0.50857   1.00
C6       0.27261    0.14938    0.47154   1.00
C6       0.29096    0.14075    0.53073   1.00
C6       0.30688    0.12843    0.46995   1.00
C6       0.31856    0.12295    0.50759   1.00
H3       0.25571    0.15872    0.44700   1.00
H3       0.29138    0.14197    0.56197   1.00
H3       0.32173    0.11831    0.44425   1.00
H3       0.34429    0.10766    0.51713   1.00
C4       0.25008    0.75018    0.47915   1.00
C4       0.24992    0.74982    0.52085   1.00
C3a      0.24019    0.78436    0.45746   1.00
C3       0.28137    0.76546    0.54232   1.00
C3       0.26021    0.71655    0.45768   1.00
C3a      0.21824    0.73363    0.54254   1.00
C2       0.25008    0.74997    0.39488   1.00
C2       0.25007    0.74996    0.60512   1.00
C3       0.24027    0.78368    0.41595   1.00
C3       0.28135    0.76562    0.58363   1.00
C3       0.26008    0.71646    0.41637   1.00
C3       0.21879    0.73403    0.58405   1.00
C5       0.22880    0.82190    0.47772   1.00
H1       0.30595    0.77801    0.52691   1.00
H1       0.23254    0.80968    0.39979   1.00
H1       0.30594    0.77810    0.59901   1.00
H1       0.26781    0.68998    0.40099   1.00
H1       0.19455    0.72187    0.60021   1.00
C5       0.18307    0.71623    0.52228   1.00
H1       0.26789    0.69004    0.47309   1.00
H2       0.15780    0.71577    0.54256   1.00
H2       0.17418    0.73487    0.49731   1.00
H2       0.21183    0.84064    0.45744   1.00
H2       0.20912    0.81563    0.50269   1.00
N1       0.19133    0.67664    0.50857   1.00
C6       0.19841    0.64535    0.53073   1.00
C6       0.19214    0.66463    0.47154   1.00
C6       0.20433    0.61305    0.50759   1.00
C6       0.20033    0.62531    0.46995   1.00
H3       0.19958    0.64588    0.56197   1.00
H3       0.18737    0.68335    0.44700   1.00
H3       0.21080    0.58382    0.51713   1.00
H3       0.20311    0.60756    0.44425   1.00
N1       0.26331    0.84299    0.49143   1.00
C6       0.27261    0.85062    0.52846   1.00
C6       0.29096    0.85925    0.46927   1.00
C6       0.30688    0.87157    0.53005   1.00
C6       0.31856    0.87705    0.49241   1.00
H3       0.25571    0.84128    0.55300   1.00
H3       0.29138    0.85803    0.43803   1.00
H3       0.32173    0.88169    0.55575   1.00
H3       0.34429    0.89234    0.48287   1.00
C4       0.25018    0.97915    0.25008   1.00
C4       0.24982    1.02085    0.24992   1.00
C3a      0.28436    0.95746    0.24019   1.00
C3       0.26546    1.04232    0.28137   1.00
C3       0.21655    0.95768    0.26021   1.00
C3a      0.23363    1.04254    0.21824   1.00
C2       0.24997    0.89488    0.25008   1.00
C2       0.24996    1.10512    0.25007   1.00
C3       0.28368    0.91595    0.24027   1.00
C3       0.26562    1.08363    0.28135   1.00
C3       0.21646    0.91637    0.26008   1.00
C3       0.23403    1.08405    0.21879   1.00
C5       0.32190    0.97772    0.22880   1.00
H1       0.27801    1.02691    0.30595   1.00
H1       0.30968    0.89979    0.23254   1.00
H1       0.27810    1.09901    0.30594   1.00
H1       0.18998    0.90099    0.26781   1.00
H1       0.22187    1.10021    0.19455   1.00
C5       0.21623    1.02228    0.18307   1.00
H1       0.19004    0.97309    0.26789   1.00
H2       0.21577    1.04256    0.15780   1.00
H2       0.23487    0.99731    0.17418   1.00
H2       0.34064    0.95744    0.21183   1.00
H2       0.31563    1.00269    0.20912   1.00
N1       0.17664    1.00857    0.19133   1.00
C6       0.14535    1.03073    0.19841   1.00
C6       0.16463    0.97154    0.19214   1.00
C6       0.11305    1.00759    0.20433   1.00
C6       0.12531    0.96995    0.20033   1.00
H3       0.14588    1.06197    0.19958   1.00
H3       0.18335    0.94700    0.18737   1.00
H3       0.08382    1.01713    0.21080   1.00
H3       0.10756    0.94425    0.20311   1.00
N1       0.34299    0.99143    0.26331   1.00
C6       0.35062    1.02846    0.27261   1.00
C6       0.35925    0.96927    0.29096   1.00
C6       0.37157    1.03005    0.30688   1.00
C6       0.37705    0.99241    0.31856   1.00
H3       0.34128    1.05300    0.25571   1.00
H3       0.35803    0.93803    0.29138   1.00
H3       0.38169    1.05575    0.32173   1.00
H3       0.39234    0.98287    0.34429   1.00
C4       0.02085    0.75008    0.24982   1.00
C4       -0.02085   0.74992    0.25018   1.00
C3a      0.04254    0.74019    0.21564   1.00
C3       -0.04232   0.78137    0.23454   1.00
C3       0.04232    0.76021    0.28345   1.00
C3a      -0.04254   0.71824    0.26637   1.00
C2       0.10512    0.75008    0.25003   1.00
C2       -0.10512   0.75007    0.25004   1.00
C3       0.08405    0.74027    0.21632   1.00
C3       -0.08363   0.78135    0.23438   1.00
C3       0.08363    0.76008    0.28354   1.00
C3       -0.08405   0.71879    0.26597   1.00
C5       0.02228    0.72880    0.17810   1.00
H1       -0.02691   0.80595    0.22199   1.00
H1       0.10021    0.73254    0.19032   1.00
H1       -0.09901   0.80594    0.22190   1.00
H1       0.09901    0.76781    0.31002   1.00
H1       -0.10021   0.69455    0.27813   1.00
C5       -0.02228   0.68307    0.28377   1.00
H1       0.02691    0.76789    0.30996   1.00
H2       -0.04256   0.65780    0.28423   1.00
H2       0.00269    0.67418    0.26513   1.00
H2       0.04256    0.71183    0.15936   1.00
H2       -0.00269   0.70912    0.18437   1.00
N1       -0.00857   0.69133    0.32336   1.00
C6       -0.03073   0.69841    0.35465   1.00
C6       0.02846    0.69214    0.33537   1.00
C6       -0.00759   0.70433    0.38695   1.00
C6       0.03005    0.70033    0.37469   1.00
H3       -0.06197   0.69958    0.35412   1.00
H3       0.05300    0.68737    0.31665   1.00
H3       -0.01713   0.71080    0.41618   1.00
H3       0.05575    0.70311    0.39244   1.00
N1       0.00857    0.76331    0.15701   1.00
C6       -0.02846   0.77261    0.14938   1.00
C6       0.03073    0.79096    0.14075   1.00
C6       -0.03005   0.80688    0.12843   1.00
C6       0.00759    0.81856    0.12295   1.00
H3       -0.05300   0.75571    0.15872   1.00
H3       0.06197    0.79138    0.14197   1.00
H3       -0.05575   0.82173    0.11831   1.00
H3       0.01713    0.84429    0.10766   1.00
C4       0.47915    0.75008    0.25018   1.00
C4       0.52085    0.74992    0.24982   1.00
C3a      0.45746    0.74019    0.28436   1.00
C3       0.54232    0.78137    0.26546   1.00
C3       0.45768    0.76021    0.21655   1.00
C3a      0.54254    0.71824    0.23363   1.00
C2       0.39488    0.75008    0.24997   1.00
C2       0.60512    0.75007    0.24996   1.00
C3       0.41595    0.74027    0.28368   1.00
C3       0.58363    0.78135    0.26562   1.00
C3       0.41637    0.76008    0.21646   1.00
C3       0.58405    0.71879    0.23403   1.00
C5       0.47772    0.72880    0.32190   1.00
H1       0.52691    0.80595    0.27801   1.00
H1       0.39979    0.73254    0.30968   1.00
H1       0.59901    0.80594    0.27810   1.00
H1       0.40099    0.76781    0.18998   1.00
H1       0.60021    0.69455    0.22187   1.00
C5       0.52228    0.68307    0.21623   1.00
H1       0.47309    0.76789    0.19004   1.00
H2       0.54256    0.65780    0.21577   1.00
H2       0.49731    0.67418    0.23487   1.00
H2       0.45744    0.71183    0.34064   1.00
H2       0.50269    0.70912    0.31563   1.00
N1       0.50857    0.69133    0.17664   1.00
C6       0.53073    0.69841    0.14535   1.00
C6       0.47154    0.69214    0.16463   1.00
C6       0.50759    0.70433    0.11305   1.00
C6       0.46995    0.70033    0.12531   1.00
H3       0.56197    0.69958    0.14588   1.00
H3       0.44700    0.68737    0.18335   1.00
H3       0.51713    0.71080    0.08382   1.00
H3       0.44425    0.70311    0.10756   1.00
N1       0.49143    0.76331    0.34299   1.00
C6       0.52846    0.77261    0.35062   1.00
C6       0.46927    0.79096    0.35925   1.00
C6       0.53005    0.80688    0.37157   1.00
C6       0.49241    0.81856    0.37705   1.00
H3       0.55300    0.75571    0.34128   1.00
H3       0.43803    0.79138    0.35803   1.00
H3       0.55575    0.82173    0.38169   1.00
H3       0.48287    0.84429    0.39234   1.00
C4       0.24982    0.52085    0.25008   1.00
C4       0.25018    0.47915    0.24992   1.00
C3a      0.21564    0.54254    0.24019   1.00
C3       0.23454    0.45768    0.28137   1.00
C3       0.28345    0.54232    0.26021   1.00
C3a      0.26637    0.45746    0.21824   1.00
C2       0.25003    0.60512    0.25008   1.00
C2       0.25004    0.39488    0.25007   1.00
C3       0.21632    0.58405    0.24027   1.00
C3       0.23438    0.41637    0.28135   1.00
C3       0.28354    0.58363    0.26008   1.00
C3       0.26597    0.41595    0.21879   1.00
C5       0.17810    0.52228    0.22880   1.00
H1       0.22199    0.47309    0.30595   1.00
H1       0.19032    0.60021    0.23254   1.00
H1       0.22190    0.40099    0.30594   1.00
H1       0.31002    0.59901    0.26781   1.00
H1       0.27813    0.39979    0.19455   1.00
C5       0.28377    0.47772    0.18307   1.00
H1       0.30996    0.52691    0.26789   1.00
H2       0.28423    0.45744    0.15780   1.00
H2       0.26513    0.50269    0.17418   1.00
H2       0.15936    0.54256    0.21183   1.00
H2       0.18437    0.49731    0.20912   1.00
N1       0.32336    0.49143    0.19133   1.00
C6       0.35465    0.46927    0.19841   1.00
C6       0.33537    0.52846    0.19214   1.00
C6       0.38695    0.49241    0.20433   1.00
C6       0.37469    0.53005    0.20033   1.00
H3       0.35412    0.43803    0.19958   1.00
H3       0.31665    0.55300    0.18737   1.00
H3       0.41618    0.48287    0.21080   1.00
H3       0.39244    0.55575    0.20311   1.00
N1       0.15701    0.50857    0.26331   1.00
C6       0.14938    0.47154    0.27261   1.00
C6       0.14075    0.53073    0.29096   1.00
C6       0.12843    0.46995    0.30688   1.00
C6       0.12295    0.50759    0.31856   1.00
H3       0.15872    0.44700    0.25571   1.00
H3       0.14197    0.56197    0.29138   1.00
H3       0.11831    0.44425    0.32173   1.00
H3       0.10766    0.51713    0.34429   1.00
C4       0.25008    0.74982    0.02085   1.00
C4       0.24992    0.75018    -0.02085   1.00
C3a      0.24019    0.71564    0.04254   1.00
C3       0.28137    0.73454    -0.04232   1.00
C3       0.26021    0.78345    0.04232   1.00
C3a      0.21824    0.76637    -0.04254   1.00
C2       0.25008    0.75003    0.10512   1.00
C2       0.25007    0.75004    -0.10512   1.00
C3       0.24027    0.71632    0.08405   1.00
C3       0.28135    0.73438    -0.08363   1.00
C3       0.26008    0.78354    0.08363   1.00
C3       0.21879    0.76597    -0.08405   1.00
C5       0.22880    0.67810    0.02228   1.00
H1       0.30595    0.72199    -0.02691   1.00
H1       0.23254    0.69032    0.10021   1.00
H1       0.30594    0.72190    -0.09901   1.00
H1       0.26781    0.81002    0.09901   1.00
H1       0.19455    0.77813    -0.10021   1.00
C5       0.18307    0.78377    -0.02228   1.00
H1       0.26789    0.80996    0.02691   1.00
H2       0.15780    0.78423    -0.04256   1.00
H2       0.17418    0.76513    0.00269   1.00
H2       0.21183    0.65936    0.04256   1.00
H2       0.20912    0.68437    -0.00269   1.00
N1       0.19133    0.82336    -0.00857   1.00
C6       0.19841    0.85465    -0.03073   1.00
C6       0.19214    0.83537    0.02846   1.00
C6       0.20433    0.88695    -0.00759   1.00
C6       0.20033    0.87469    0.03005   1.00
H3       0.19958    0.85412    -0.06197   1.00
H3       0.18737    0.81665    0.05300   1.00
H3       0.21080    0.91618    -0.01713   1.00
H3       0.20311    0.89244    0.05575   1.00
N1       0.26331    0.65701    0.00857   1.00
C6       0.27261    0.64938    -0.02846   1.00
C6       0.29096    0.64075    0.03073   1.00
C6       0.30688    0.62843    -0.03005   1.00
C6       0.31856    0.62295    0.00759   1.00
H3       0.25571    0.65872    -0.05300   1.00
H3       0.29138    0.64197    0.06197   1.00
H3       0.32173    0.61831    -0.05575   1.00
H3       0.34429    0.60766    0.01713   1.00
C4       0.75008    0.25018    0.47915   1.00
C4       0.74992    0.24982    0.52085   1.00
C3a      0.74019    0.28436    0.45746   1.00
C3       0.78137    0.26546    0.54232   1.00
C3       0.76021    0.21655    0.45768   1.00
C3a      0.71824    0.23363    0.54254   1.00
C2       0.75008    0.24997    0.39488   1.00
C2       0.75007    0.24996    0.60512   1.00
C3       0.74027    0.28368    0.41595   1.00
C3       0.78135    0.26562    0.58363   1.00
C3       0.76008    0.21646    0.41637   1.00
C3       0.71879    0.23403    0.58405   1.00
C5       0.72880    0.32190    0.47772   1.00
H1       0.80595    0.27801    0.52691   1.00
H1       0.73254    0.30968    0.39979   1.00
H1       0.80594    0.27810    0.59901   1.00
H1       0.76781    0.18998    0.40099   1.00
H1       0.69455    0.22187    0.60021   1.00
C5       0.68307    0.21623    0.52228   1.00
H1       0.76789    0.19004    0.47309   1.00
H2       0.65780    0.21577    0.54256   1.00
H2       0.67418    0.23487    0.49731   1.00
H2       0.71183    0.34064    0.45744   1.00
H2       0.70912    0.31563    0.50269   1.00
N1       0.69133    0.17664    0.50857   1.00
C6       0.69841    0.14535    0.53073   1.00
C6       0.69214    0.16463    0.47154   1.00
C6       0.70433    0.11305    0.50759   1.00
C6       0.70033    0.12531    0.46995   1.00
H3       0.69958    0.14588    0.56197   1.00
H3       0.68737    0.18335    0.44700   1.00
H3       0.71080    0.08382    0.51713   1.00
H3       0.70311    0.10756    0.44425   1.00
N1       0.76331    0.34299    0.49143   1.00
C6       0.77261    0.35062    0.52846   1.00
C6       0.79096    0.35925    0.46927   1.00
C6       0.80688    0.37157    0.53005   1.00
C6       0.81856    0.37705    0.49241   1.00
H3       0.75571    0.34128    0.55300   1.00
H3       0.79138    0.35803    0.43803   1.00
H3       0.82173    0.38169    0.55575   1.00
H3       0.84429    0.39234    0.48287   1.00
C4       0.75018    0.47915    0.25008   1.00
C4       0.74982    0.52085    0.24992   1.00
C3a      0.78436    0.45746    0.24019   1.00
C3       0.76546    0.54232    0.28137   1.00
C3       0.71655    0.45768    0.26021   1.00
C3a      0.73363    0.54254    0.21824   1.00
C2       0.74997    0.39488    0.25008   1.00
C2       0.74996    0.60512    0.25007   1.00
C3       0.78368    0.41595    0.24027   1.00
C3       0.76562    0.58363    0.28135   1.00
C3       0.71646    0.41637    0.26008   1.00
C3       0.73403    0.58405    0.21879   1.00
C5       0.82190    0.47772    0.22880   1.00
H1       0.77801    0.52691    0.30595   1.00
H1       0.80968    0.39979    0.23254   1.00
H1       0.77810    0.59901    0.30594   1.00
H1       0.68998    0.40099    0.26781   1.00
H1       0.72187    0.60021    0.19455   1.00
C5       0.71623    0.52228    0.18307   1.00
H1       0.69004    0.47309    0.26789   1.00
H2       0.71577    0.54256    0.15780   1.00
H2       0.73487    0.49731    0.17418   1.00
H2       0.84064    0.45744    0.21183   1.00
H2       0.81563    0.50269    0.20912   1.00
N1       0.67664    0.50857    0.19133   1.00
C6       0.64535    0.53073    0.19841   1.00
C6       0.66463    0.47154    0.19214   1.00
C6       0.61305    0.50759    0.20433   1.00
C6       0.62531    0.46995    0.20033   1.00
H3       0.64588    0.56197    0.19958   1.00
H3       0.68335    0.44700    0.18737   1.00
H3       0.58382    0.51713    0.21080   1.00
H3       0.60756    0.44425    0.20311   1.00
N1       0.84299    0.49143    0.26331   1.00
C6       0.85062    0.52846    0.27261   1.00
C6       0.85925    0.46927    0.29096   1.00
C6       0.87157    0.53005    0.30688   1.00
C6       0.87705    0.49241    0.31856   1.00
H3       0.84128    0.55300    0.25571   1.00
H3       0.85803    0.43803    0.29138   1.00
H3       0.88169    0.55575    0.32173   1.00
H3       0.89234    0.48287    0.34429   1.00
C4       0.52085    0.25008    0.24982   1.00
C4       0.47915    0.24992    0.25018   1.00
C3a      0.54254    0.24019    0.21564   1.00
C3       0.45768    0.28137    0.23454   1.00
C3       0.54232    0.26021    0.28345   1.00
C3a      0.45746    0.21824    0.26637   1.00
C2       0.60512    0.25008    0.25003   1.00
C2       0.39488    0.25007    0.25004   1.00
C3       0.58405    0.24027    0.21632   1.00
C3       0.41637    0.28135    0.23438   1.00
C3       0.58363    0.26008    0.28354   1.00
C3       0.41595    0.21879    0.26597   1.00
C5       0.52228    0.22880    0.17810   1.00
H1       0.47309    0.30595    0.22199   1.00
H1       0.60021    0.23254    0.19032   1.00
H1       0.40099    0.30594    0.22190   1.00
H1       0.59901    0.26781    0.31002   1.00
H1       0.39979    0.19455    0.27813   1.00
C5       0.47772    0.18307    0.28377   1.00
H1       0.52691    0.26789    0.30996   1.00
H2       0.45744    0.15780    0.28423   1.00
H2       0.50269    0.17418    0.26513   1.00
H2       0.54256    0.21183    0.15936   1.00
H2       0.49731    0.20912    0.18437   1.00
N1       0.49143    0.19133    0.32336   1.00
C6       0.46927    0.19841    0.35465   1.00
C6       0.52846    0.19214    0.33537   1.00
C6       0.49241    0.20433    0.38695   1.00
C6       0.53005    0.20033    0.37469   1.00
H3       0.43803    0.19958    0.35412   1.00
H3       0.55300    0.18737    0.31665   1.00
H3       0.48287    0.21080    0.41618   1.00
H3       0.55575    0.20311    0.39244   1.00
N1       0.50857    0.26331    0.15701   1.00
C6       0.47154    0.27261    0.14938   1.00
C6       0.53073    0.29096    0.14075   1.00
C6       0.46995    0.30688    0.12843   1.00
C6       0.50759    0.31856    0.12295   1.00
H3       0.44700    0.25571    0.15872   1.00
H3       0.56197    0.29138    0.14197   1.00
H3       0.44425    0.32173    0.11831   1.00
H3       0.51713    0.34429    0.10766   1.00
C4       0.97915    0.25008    0.25018   1.00
C4       1.02085    0.24992    0.24982   1.00
C3a      0.95746    0.24019    0.28436   1.00
C3       1.04232    0.28137    0.26546   1.00
C3       0.95768    0.26021    0.21655   1.00
C3a      1.04254    0.21824    0.23363   1.00
C2       0.89488    0.25008    0.24997   1.00
C2       1.10512    0.25007    0.24996   1.00
C3       0.91595    0.24027    0.28368   1.00
C3       1.08363    0.28135    0.26562   1.00
C3       0.91637    0.26008    0.21646   1.00
C3       1.08405    0.21879    0.23403   1.00
C5       0.97772    0.22880    0.32190   1.00
H1       1.02691    0.30595    0.27801   1.00
H1       0.89979    0.23254    0.30968   1.00
H1       1.09901    0.30594    0.27810   1.00
H1       0.90099    0.26781    0.18998   1.00
H1       1.10021    0.19455    0.22187   1.00
C5       1.02228    0.18307    0.21623   1.00
H1       0.97309    0.26789    0.19004   1.00
H2       1.04256    0.15780    0.21577   1.00
H2       0.99731    0.17418    0.23487   1.00
H2       0.95744    0.21183    0.34064   1.00
H2       1.00269    0.20912    0.31563   1.00
N1       1.00857    0.19133    0.17664   1.00
C6       1.03073    0.19841    0.14535   1.00
C6       0.97154    0.19214    0.16463   1.00
C6       1.00759    0.20433    0.11305   1.00
C6       0.96995    0.20033    0.12531   1.00
H3       1.06197    0.19958    0.14588   1.00
H3       0.94700    0.18737    0.18335   1.00
H3       1.01713    0.21080    0.08382   1.00
H3       0.94425    0.20311    0.10756   1.00
N1       0.99143    0.26331    0.34299   1.00
C6       1.02846    0.27261    0.35062   1.00
C6       0.96927    0.29096    0.35925   1.00
C6       1.03005    0.30688    0.37157   1.00
C6       0.99241    0.31856    0.37705   1.00
H3       1.05300    0.25571    0.34128   1.00
H3       0.93803    0.29138    0.35803   1.00
H3       1.05575    0.32173    0.38169   1.00
H3       0.98287    0.34429    0.39234   1.00
C4       0.74982    0.02085    0.25008   1.00
C4       0.75018    -0.02085   0.24992   1.00
C3a      0.71564    0.04254    0.24019   1.00
C3       0.73454    -0.04232   0.28137   1.00
C3       0.78345    0.04232    0.26021   1.00
C3a      0.76637    -0.04254   0.21824   1.00
C2       0.75003    0.10512    0.25008   1.00
C2       0.75004    -0.10512   0.25007   1.00
C3       0.71632    0.08405    0.24027   1.00
C3       0.73438    -0.08363   0.28135   1.00
C3       0.78354    0.08363    0.26008   1.00
C3       0.76597    -0.08405   0.21879   1.00
C5       0.67810    0.02228    0.22880   1.00
H1       0.72199    -0.02691   0.30595   1.00
H1       0.69032    0.10021    0.23254   1.00
H1       0.72190    -0.09901   0.30594   1.00
H1       0.81002    0.09901    0.26781   1.00
H1       0.77813    -0.10021   0.19455   1.00
C5       0.78377    -0.02228   0.18307   1.00
H1       0.80996    0.02691    0.26789   1.00
H2       0.78423    -0.04256   0.15780   1.00
H2       0.76513    0.00269    0.17418   1.00
H2       0.65936    0.04256    0.21183   1.00
H2       0.68437    -0.00269   0.20912   1.00
N1       0.82336    -0.00857   0.19133   1.00
C6       0.85465    -0.03073   0.19841   1.00
C6       0.83537    0.02846    0.19214   1.00
C6       0.88695    -0.00759   0.20433   1.00
C6       0.87469    0.03005    0.20033   1.00
H3       0.85412    -0.06197   0.19958   1.00
H3       0.81665    0.05300    0.18737   1.00
H3       0.91618    -0.01713   0.21080   1.00
H3       0.89244    0.05575    0.20311   1.00
N1       0.65701    0.00857    0.26331   1.00
C6       0.64938    -0.02846   0.27261   1.00
C6       0.64075    0.03073    0.29096   1.00
C6       0.62843    -0.03005   0.30688   1.00
C6       0.62295    0.00759    0.31856   1.00
H3       0.65872    -0.05300   0.25571   1.00
H3       0.64197    0.06197    0.29138   1.00
H3       0.61831    -0.05575   0.32173   1.00
H3       0.60766    0.01713    0.34429   1.00
C4       0.75008    0.24982    0.02085   1.00
C4       0.74992    0.25018    -0.02085   1.00
C3a      0.74019    0.21564    0.04254   1.00
C3       0.78137    0.23454    -0.04232   1.00
C3       0.76021    0.28345    0.04232   1.00
C3a      0.71824    0.26637    -0.04254   1.00
C2       0.75008    0.25003    0.10512   1.00
C2       0.75007    0.25004    -0.10512   1.00
C3       0.74027    0.21632    0.08405   1.00
C3       0.78135    0.23438    -0.08363   1.00
C3       0.76008    0.28354    0.08363   1.00
C3       0.71879    0.26597    -0.08405   1.00
C5       0.72880    0.17810    0.02228   1.00
H1       0.80595    0.22199    -0.02691   1.00
H1       0.73254    0.19032    0.10021   1.00
H1       0.80594    0.22190    -0.09901   1.00
H1       0.76781    0.31002    0.09901   1.00
H1       0.69455    0.27813    -0.10021   1.00
C5       0.68307    0.28377    -0.02228   1.00
H1       0.76789    0.30996    0.02691   1.00
H2       0.65780    0.28423    -0.04256   1.00
H2       0.67418    0.26513    0.00269   1.00
H2       0.71183    0.15936    0.04256   1.00
H2       0.70912    0.18437    -0.00269   1.00
N1       0.69133    0.32336    -0.00857   1.00
C6       0.69841    0.35465    -0.03073   1.00
C6       0.69214    0.33537    0.02846   1.00
C6       0.70433    0.38695    -0.00759   1.00
C6       0.70033    0.37469    0.03005   1.00
H3       0.69958    0.35412    -0.06197   1.00
H3       0.68737    0.31665    0.05300   1.00
H3       0.71080    0.41618    -0.01713   1.00
H3       0.70311    0.39244    0.05575   1.00
N1       0.76331    0.15701    0.00857   1.00
C6       0.77261    0.14938    -0.02846   1.00
C6       0.79096    0.14075    0.03073   1.00
C6       0.80688    0.12843    -0.03005   1.00
C6       0.81856    0.12295    0.00759   1.00
H3       0.75571    0.15872    -0.05300   1.00
H3       0.79138    0.14197    0.06197   1.00
H3       0.82173    0.11831    -0.05575   1.00
H3       0.84429    0.10766    0.01713   1.00
C4       0.91508    0.91518    1.14415   1.00
C4       0.91492    0.91482    1.18585   1.00
C3a      0.90519    0.94936    1.12246   1.00
C3       0.94637    0.93046    1.20732   1.00
C3       0.92521    0.88155    1.12268   1.00
C3a      0.88324    0.89863    1.20754   1.00
C2       0.91508    0.91497    1.05988   1.00
C2       0.91507    0.91496    1.27012   1.00
C3       0.90527    0.94868    1.08095   1.00
C3       0.94635    0.93062    1.24863   1.00
C3       0.92508    0.88146    1.08137   1.00
C3       0.88379    0.89903    1.24905   1.00
C5       0.89380    0.98690    1.14272   1.00
H1       0.97095    0.94301    1.19191   1.00
H1       0.89754    0.97468    1.06479   1.00
H1       0.97094    0.94310    1.26401   1.00
H1       0.93281    0.85498    1.06599   1.00
H1       0.85955    0.88687    1.26521   1.00
C5       0.84807    0.88123    1.18728   1.00
H1       0.93289    0.85504    1.13809   1.00
H2       0.82280    0.88077    1.20756   1.00
H2       0.83918    0.89987    1.16231   1.00
H2       0.87683    1.00564    1.12244   1.00
H2       0.87412    0.98063    1.16769   1.00
N1       0.85633    0.84164    1.17357   1.00
C6       0.86341    0.81035    1.19573   1.00
C6       0.85714    0.82963    1.13654   1.00
C6       0.86933    0.77805    1.17259   1.00
C6       0.86533    0.79031    1.13495   1.00
H3       0.86458    0.81088    1.22697   1.00
H3       0.85237    0.84835    1.11200   1.00
H3       0.87580    0.74882    1.18213   1.00
H3       0.86811    0.77256    1.10925   1.00
N1       0.92831    1.00799    1.15643   1.00
C6       0.93761    1.01562    1.19346   1.00
C6       0.95596    1.02425    1.13427   1.00
C6       0.97188    1.03657    1.19505   1.00
C6       0.98356    1.04205    1.15741   1.00
H3       0.92071    1.00628    1.21800   1.00
H3       0.95638    1.02303    1.10303   1.00
H3       0.98673    1.04669    1.22075   1.00
H3       1.00929    1.05734    1.14787   1.00
C4       0.91518    1.14415    0.91508   1.00
C4       0.91482    1.18585    0.91492   1.00
C3a      0.94936    1.12246    0.90519   1.00
C3       0.93046    1.20732    0.94637   1.00
C3       0.88155    1.12268    0.92521   1.00
C3a      0.89863    1.20754    0.88324   1.00
C2       0.91497    1.05988    0.91508   1.00
C2       0.91496    1.27012    0.91507   1.00
C3       0.94868    1.08095    0.90527   1.00
C3       0.93062    1.24863    0.94635   1.00
C3       0.88146    1.08137    0.92508   1.00
C3       0.89903    1.24905    0.88379   1.00
C5       0.98690    1.14272    0.89380   1.00
H1       0.94301    1.19191    0.97095   1.00
H1       0.97468    1.06479    0.89754   1.00
H1       0.94310    1.26401    0.97094   1.00
H1       0.85498    1.06599    0.93281   1.00
H1       0.88687    1.26521    0.85955   1.00
C5       0.88123    1.18728    0.84807   1.00
H1       0.85504    1.13809    0.93289   1.00
H2       0.88077    1.20756    0.82280   1.00
H2       0.89987    1.16231    0.83918   1.00
H2       1.00564    1.12244    0.87683   1.00
H2       0.98063    1.16769    0.87412   1.00
N1       0.84164    1.17357    0.85633   1.00
C6       0.81035    1.19573    0.86341   1.00
C6       0.82963    1.13654    0.85714   1.00
C6       0.77805    1.17259    0.86933   1.00
C6       0.79031    1.13495    0.86533   1.00
H3       0.81088    1.22697    0.86458   1.00
H3       0.84835    1.11200    0.85237   1.00
H3       0.74882    1.18213    0.87580   1.00
H3       0.77256    1.10925    0.86811   1.00
N1       1.00799    1.15643    0.92831   1.00
C6       1.01562    1.19346    0.93761   1.00
C6       1.02425    1.13427    0.95596   1.00
C6       1.03657    1.19505    0.97188   1.00
C6       1.04205    1.15741    0.98356   1.00
H3       1.00628    1.21800    0.92071   1.00
H3       1.02303    1.10303    0.95638   1.00
H3       1.04669    1.22075    0.98673   1.00
H3       1.05734    1.14787    1.00929   1.00
C4       0.68585    0.91508    0.91482   1.00
C4       0.64415    0.91492    0.91518   1.00
C3a      0.70754    0.90519    0.88064   1.00
C3       0.62268    0.94637    0.89954   1.00
C3       0.70732    0.92521    0.94845   1.00
C3a      0.62246    0.88324    0.93137   1.00
C2       0.77012    0.91508    0.91503   1.00
C2       0.55988    0.91507    0.91504   1.00
C3       0.74905    0.90527    0.88132   1.00
C3       0.58137    0.94635    0.89938   1.00
C3       0.74863    0.92508    0.94854   1.00
C3       0.58095    0.88379    0.93097   1.00
C5       0.68728    0.89380    0.84310   1.00
H1       0.63809    0.97095    0.88699   1.00
H1       0.76521    0.89754    0.85532   1.00
H1       0.56599    0.97094    0.88690   1.00
H1       0.76401    0.93281    0.97502   1.00
H1       0.56479    0.85955    0.94313   1.00
C5       0.64272    0.84807    0.94877   1.00
H1       0.69191    0.93289    0.97496   1.00
H2       0.62244    0.82280    0.94923   1.00
H2       0.66769    0.83918    0.93013   1.00
H2       0.70756    0.87683    0.82436   1.00
H2       0.66231    0.87412    0.84937   1.00
N1       0.65643    0.85633    0.98836   1.00
C6       0.63427    0.86341    1.01965   1.00
C6       0.69346    0.85714    1.00037   1.00
C6       0.65741    0.86933    1.05195   1.00
C6       0.69505    0.86533    1.03969   1.00
H3       0.60303    0.86458    1.01912   1.00
H3       0.71800    0.85237    0.98165   1.00
H3       0.64787    0.87580    1.08118   1.00
H3       0.72075    0.86811    1.05744   1.00
N1       0.67357    0.92831    0.82201   1.00
C6       0.63654    0.93761    0.81438   1.00
C6       0.69573    0.95596    0.80575   1.00
C6       0.63495    0.97188    0.79343   1.00
C6       0.67259    0.98356    0.78795   1.00
H3       0.61200    0.92071    0.82372   1.00
H3       0.72697    0.95638    0.80697   1.00
H3       0.60925    0.98673    0.78331   1.00
H3       0.68213    1.00929    0.77266   1.00
C4       1.14415    0.91508    0.91518   1.00
C4       1.18585    0.91492    0.91482   1.00
C3a      1.12246    0.90519    0.94936   1.00
C3       1.20732    0.94637    0.93046   1.00
C3       1.12268    0.92521    0.88155   1.00
C3a      1.20754    0.88324    0.89863   1.00
C2       1.05988    0.91508    0.91497   1.00
C2       1.27012    0.91507    0.91496   1.00
C3       1.08095    0.90527    0.94868   1.00
C3       1.24863    0.94635    0.93062   1.00
C3       1.08137    0.92508    0.88146   1.00
C3       1.24905    0.88379    0.89903   1.00
C5       1.14272    0.89380    0.98690   1.00
H1       1.19191    0.97095    0.94301   1.00
H1       1.06479    0.89754    0.97468   1.00
H1       1.26401    0.97094    0.94310   1.00
H1       1.06599    0.93281    0.85498   1.00
H1       1.26521    0.85955    0.88687   1.00
C5       1.18728    0.84807    0.88123   1.00
H1       1.13809    0.93289    0.85504   1.00
H2       1.20756    0.82280    0.88077   1.00
H2       1.16231    0.83918    0.89987   1.00
H2       1.12244    0.87683    1.00564   1.00
H2       1.16769    0.87412    0.98063   1.00
N1       1.17357    0.85633    0.84164   1.00
C6       1.19573    0.86341    0.81035   1.00
C6       1.13654    0.85714    0.82963   1.00
C6       1.17259    0.86933    0.77805   1.00
C6       1.13495    0.86533    0.79031   1.00
H3       1.22697    0.86458    0.81088   1.00
H3       1.11200    0.85237    0.84835   1.00
H3       1.18213    0.87580    0.74882   1.00
H3       1.10925    0.86811    0.77256   1.00
N1       1.15643    0.92831    1.00799   1.00
C6       1.19346    0.93761    1.01562   1.00
C6       1.13427    0.95596    1.02425   1.00
C6       1.19505    0.97188    1.03657   1.00
C6       1.15741    0.98356    1.04205   1.00
H3       1.21800    0.92071    1.00628   1.00
H3       1.10303    0.95638    1.02303   1.00
H3       1.22075    0.98673    1.04669   1.00
H3       1.14787    1.00929    1.05734   1.00
C4       0.91482    0.68585    0.91508   1.00
C4       0.91518    0.64415    0.91492   1.00
C3a      0.88064    0.70754    0.90519   1.00
C3       0.89954    0.62268    0.94637   1.00
C3       0.94845    0.70732    0.92521   1.00
C3a      0.93137    0.62246    0.88324   1.00
C2       0.91503    0.77012    0.91508   1.00
C2       0.91504    0.55988    0.91507   1.00
C3       0.88132    0.74905    0.90527   1.00
C3       0.89938    0.58137    0.94635   1.00
C3       0.94854    0.74863    0.92508   1.00
C3       0.93097    0.58095    0.88379   1.00
C5       0.84310    0.68728    0.89380   1.00
H1       0.88699    0.63809    0.97095   1.00
H1       0.85532    0.76521    0.89754   1.00
H1       0.88690    0.56599    0.97094   1.00
H1       0.97502    0.76401    0.93281   1.00
H1       0.94313    0.56479    0.85955   1.00
C5       0.94877    0.64272    0.84807   1.00
H1       0.97496    0.69191    0.93289   1.00
H2       0.94923    0.62244    0.82280   1.00
H2       0.93013    0.66769    0.83918   1.00
H2       0.82436    0.70756    0.87683   1.00
H2       0.84937    0.66231    0.87412   1.00
N1       0.98836    0.65643    0.85633   1.00
C6       1.01965    0.63427    0.86341   1.00
C6       1.00037    0.69346    0.85714   1.00
C6       1.05195    0.65741    0.86933   1.00
C6       1.03969    0.69505    0.86533   1.00
H3       1.01912    0.60303    0.86458   1.00
H3       0.98165    0.71800    0.85237   1.00
H3       1.08118    0.64787    0.87580   1.00
H3       1.05744    0.72075    0.86811   1.00
N1       0.82201    0.67357    0.92831   1.00
C6       0.81438    0.63654    0.93761   1.00
C6       0.80575    0.69573    0.95596   1.00
C6       0.79343    0.63495    0.97188   1.00
C6       0.78795    0.67259    0.98356   1.00
H3       0.82372    0.61200    0.92071   1.00
H3       0.80697    0.72697    0.95638   1.00
H3       0.78331    0.60925    0.98673   1.00
H3       0.77266    0.68213    1.00929   1.00
C4       0.91508    0.91482    0.68585   1.00
C4       0.91492    0.91518    0.64415   1.00
C3a      0.90519    0.88064    0.70754   1.00
C3       0.94637    0.89954    0.62268   1.00
C3       0.92521    0.94845    0.70732   1.00
C3a      0.88324    0.93137    0.62246   1.00
C2       0.91508    0.91503    0.77012   1.00
C2       0.91507    0.91504    0.55988   1.00
C3       0.90527    0.88132    0.74905   1.00
C3       0.94635    0.89938    0.58137   1.00
C3       0.92508    0.94854    0.74863   1.00
C3       0.88379    0.93097    0.58095   1.00
C5       0.89380    0.84310    0.68728   1.00
H1       0.97095    0.88699    0.63809   1.00
H1       0.89754    0.85532    0.76521   1.00
H1       0.97094    0.88690    0.56599   1.00
H1       0.93281    0.97502    0.76401   1.00
H1       0.85955    0.94313    0.56479   1.00
C5       0.84807    0.94877    0.64272   1.00
H1       0.93289    0.97496    0.69191   1.00
H2       0.82280    0.94923    0.62244   1.00
H2       0.83918    0.93013    0.66769   1.00
H2       0.87683    0.82436    0.70756   1.00
H2       0.87412    0.84937    0.66231   1.00
N1       0.85633    0.98836    0.65643   1.00
C6       0.86341    1.01965    0.63427   1.00
C6       0.85714    1.00037    0.69346   1.00
C6       0.86933    1.05195    0.65741   1.00
C6       0.86533    1.03969    0.69505   1.00
H3       0.86458    1.01912    0.60303   1.00
H3       0.85237    0.98165    0.71800   1.00
H3       0.87580    1.08118    0.64787   1.00
H3       0.86811    1.05744    0.72075   1.00
N1       0.92831    0.82201    0.67357   1.00
C6       0.93761    0.81438    0.63654   1.00
C6       0.95596    0.80575    0.69573   1.00
C6       0.97188    0.79343    0.63495   1.00
C6       0.98356    0.78795    0.67259   1.00
H3       0.92071    0.82372    0.61200   1.00
H3       0.95638    0.80697    0.72697   1.00
H3       0.98673    0.78331    0.60925   1.00
H3       1.00929    0.77266    0.68213   1.00
C4       0.41508    0.41518    1.14415   1.00
C4       0.41492    0.41482    1.18585   1.00
C3a      0.40519    0.44936    1.12246   1.00
C3       0.44637    0.43046    1.20732   1.00
C3       0.42521    0.38155    1.12268   1.00
C3a      0.38324    0.39863    1.20754   1.00
C2       0.41508    0.41497    1.05988   1.00
C2       0.41507    0.41496    1.27012   1.00
C3       0.40527    0.44868    1.08095   1.00
C3       0.44635    0.43062    1.24863   1.00
C3       0.42508    0.38146    1.08137   1.00
C3       0.38379    0.39903    1.24905   1.00
C5       0.39380    0.48690    1.14272   1.00
H1       0.47095    0.44301    1.19191   1.00
H1       0.39754    0.47468    1.06479   1.00
H1       0.47094    0.44310    1.26401   1.00
H1       0.43281    0.35498    1.06599   1.00
H1       0.35955    0.38687    1.26521   1.00
C5       0.34807    0.38123    1.18728   1.00
H1       0.43289    0.35504    1.13809   1.00
H2       0.32280    0.38077    1.20756   1.00
H2       0.33918    0.39987    1.16231   1.00
H2       0.37683    0.50564    1.12244   1.00
H2       0.37412    0.48063    1.16769   1.00
N1       0.35633    0.34164    1.17357   1.00
C6       0.36341    0.31035    1.19573   1.00
C6       0.35714    0.32963    1.13654   1.00
C6       0.36933    0.27805    1.17259   1.00
C6       0.36533    0.29031    1.13495   1.00
H3       0.36458    0.31088    1.22697   1.00
H3       0.35237    0.34835    1.11200   1.00
H3       0.37580    0.24882    1.18213   1.00
H3       0.36811    0.27256    1.10925   1.00
N1       0.42831    0.50799    1.15643   1.00
C6       0.43761    0.51562    1.19346   1.00
C6       0.45596    0.52425    1.13427   1.00
C6       0.47188    0.53657    1.19505   1.00
C6       0.48356    0.54205    1.15741   1.00
H3       0.42071    0.50628    1.21800   1.00
H3       0.45638    0.52303    1.10303   1.00
H3       0.48673    0.54669    1.22075   1.00
H3       0.50929    0.55734    1.14787   1.00
C4       0.41518    0.64415    0.91508   1.00
C4       0.41482    0.68585    0.91492   1.00
C3a      0.44936    0.62246    0.90519   1.00
C3       0.43046    0.70732    0.94637   1.00
C3       0.38155    0.62268    0.92521   1.00
C3a      0.39863    0.70754    0.88324   1.00
C2       0.41497    0.55988    0.91508   1.00
C2       0.41496    0.77012    0.91507   1.00
C3       0.44868    0.58095    0.90527   1.00
C3       0.43062    0.74863    0.94635   1.00
C3       0.38146    0.58137    0.92508   1.00
C3       0.39903    0.74905    0.88379   1.00
C5       0.48690    0.64272    0.89380   1.00
H1       0.44301    0.69191    0.97095   1.00
H1       0.47468    0.56479    0.89754   1.00
H1       0.44310    0.76401    0.97094   1.00
H1       0.35498    0.56599    0.93281   1.00
H1       0.38687    0.76521    0.85955   1.00
C5       0.38123    0.68728    0.84807   1.00
H1       0.35504    0.63809    0.93289   1.00
H2       0.38077    0.70756    0.82280   1.00
H2       0.39987    0.66231    0.83918   1.00
H2       0.50564    0.62244    0.87683   1.00
H2       0.48063    0.66769    0.87412   1.00
N1       0.34164    0.67357    0.85633   1.00
C6       0.31035    0.69573    0.86341   1.00
C6       0.32963    0.63654    0.85714   1.00
C6       0.27805    0.67259    0.86933   1.00
C6       0.29031    0.63495    0.86533   1.00
H3       0.31088    0.72697    0.86458   1.00
H3       0.34835    0.61200    0.85237   1.00
H3       0.24882    0.68213    0.87580   1.00
H3       0.27256    0.60925    0.86811   1.00
N1       0.50799    0.65643    0.92831   1.00
C6       0.51562    0.69346    0.93761   1.00
C6       0.52425    0.63427    0.95596   1.00
C6       0.53657    0.69505    0.97188   1.00
C6       0.54205    0.65741    0.98356   1.00
H3       0.50628    0.71800    0.92071   1.00
H3       0.52303    0.60303    0.95638   1.00
H3       0.54669    0.72075    0.98673   1.00
H3       0.55734    0.64787    1.00929   1.00
C4       0.18585    0.41508    0.91482   1.00
C4       0.14415    0.41492    0.91518   1.00
C3a      0.20754    0.40519    0.88064   1.00
C3       0.12268    0.44637    0.89954   1.00
C3       0.20732    0.42521    0.94845   1.00
C3a      0.12246    0.38324    0.93137   1.00
C2       0.27012    0.41508    0.91503   1.00
C2       0.05988    0.41507    0.91504   1.00
C3       0.24905    0.40527    0.88132   1.00
C3       0.08137    0.44635    0.89938   1.00
C3       0.24863    0.42508    0.94854   1.00
C3       0.08095    0.38379    0.93097   1.00
C5       0.18728    0.39380    0.84310   1.00
H1       0.13809    0.47095    0.88699   1.00
H1       0.26521    0.39754    0.85532   1.00
H1       0.06599    0.47094    0.88690   1.00
H1       0.26401    0.43281    0.97502   1.00
H1       0.06479    0.35955    0.94313   1.00
C5       0.14272    0.34807    0.94877   1.00
H1       0.19191    0.43289    0.97496   1.00
H2       0.12244    0.32280    0.94923   1.00
H2       0.16769    0.33918    0.93013   1.00
H2       0.20756    0.37683    0.82436   1.00
H2       0.16231    0.37412    0.84937   1.00
N1       0.15643    0.35633    0.98836   1.00
C6       0.13427    0.36341    1.01965   1.00
C6       0.19346    0.35714    1.00037   1.00
C6       0.15741    0.36933    1.05195   1.00
C6       0.19505    0.36533    1.03969   1.00
H3       0.10303    0.36458    1.01912   1.00
H3       0.21800    0.35237    0.98165   1.00
H3       0.14787    0.37580    1.08118   1.00
H3       0.22075    0.36811    1.05744   1.00
N1       0.17357    0.42831    0.82201   1.00
C6       0.13654    0.43761    0.81438   1.00
C6       0.19573    0.45596    0.80575   1.00
C6       0.13495    0.47188    0.79343   1.00
C6       0.17259    0.48356    0.78795   1.00
H3       0.11200    0.42071    0.82372   1.00
H3       0.22697    0.45638    0.80697   1.00
H3       0.10925    0.48673    0.78331   1.00
H3       0.18213    0.50929    0.77266   1.00
C4       0.64415    0.41508    0.91518   1.00
C4       0.68585    0.41492    0.91482   1.00
C3a      0.62246    0.40519    0.94936   1.00
C3       0.70732    0.44637    0.93046   1.00
C3       0.62268    0.42521    0.88155   1.00
C3a      0.70754    0.38324    0.89863   1.00
C2       0.55988    0.41508    0.91497   1.00
C2       0.77012    0.41507    0.91496   1.00
C3       0.58095    0.40527    0.94868   1.00
C3       0.74863    0.44635    0.93062   1.00
C3       0.58137    0.42508    0.88146   1.00
C3       0.74905    0.38379    0.89903   1.00
C5       0.64272    0.39380    0.98690   1.00
H1       0.69191    0.47095    0.94301   1.00
H1       0.56479    0.39754    0.97468   1.00
H1       0.76401    0.47094    0.94310   1.00
H1       0.56599    0.43281    0.85498   1.00
H1       0.76521    0.35955    0.88687   1.00
C5       0.68728    0.34807    0.88123   1.00
H1       0.63809    0.43289    0.85504   1.00
H2       0.70756    0.32280    0.88077   1.00
H2       0.66231    0.33918    0.89987   1.00
H2       0.62244    0.37683    1.00564   1.00
H2       0.66769    0.37412    0.98063   1.00
N1       0.67357    0.35633    0.84164   1.00
C6       0.69573    0.36341    0.81035   1.00
C6       0.63654    0.35714    0.82963   1.00
C6       0.67259    0.36933    0.77805   1.00
C6       0.63495    0.36533    0.79031   1.00
H3       0.72697    0.36458    0.81088   1.00
H3       0.61200    0.35237    0.84835   1.00
H3       0.68213    0.37580    0.74882   1.00
H3       0.60925    0.36811    0.77256   1.00
N1       0.65643    0.42831    1.00799   1.00
C6       0.69346    0.43761    1.01562   1.00
C6       0.63427    0.45596    1.02425   1.00
C6       0.69505    0.47188    1.03657   1.00
C6       0.65741    0.48356    1.04205   1.00
H3       0.71800    0.42071    1.00628   1.00
H3       0.60303    0.45638    1.02303   1.00
H3       0.72075    0.48673    1.04669   1.00
H3       0.64787    0.50929    1.05734   1.00
C4       0.41482    0.18585    0.91508   1.00
C4       0.41518    0.14415    0.91492   1.00
C3a      0.38064    0.20754    0.90519   1.00
C3       0.39954    0.12268    0.94637   1.00
C3       0.44845    0.20732    0.92521   1.00
C3a      0.43137    0.12246    0.88324   1.00
C2       0.41503    0.27012    0.91508   1.00
C2       0.41504    0.05988    0.91507   1.00
C3       0.38132    0.24905    0.90527   1.00
C3       0.39938    0.08137    0.94635   1.00
C3       0.44854    0.24863    0.92508   1.00
C3       0.43097    0.08095    0.88379   1.00
C5       0.34310    0.18728    0.89380   1.00
H1       0.38699    0.13809    0.97095   1.00
H1       0.35532    0.26521    0.89754   1.00
H1       0.38690    0.06599    0.97094   1.00
H1       0.47502    0.26401    0.93281   1.00
H1       0.44313    0.06479    0.85955   1.00
C5       0.44877    0.14272    0.84807   1.00
H1       0.47496    0.19191    0.93289   1.00
H2       0.44923    0.12244    0.82280   1.00
H2       0.43013    0.16769    0.83918   1.00
H2       0.32436    0.20756    0.87683   1.00
H2       0.34937    0.16231    0.87412   1.00
N1       0.48836    0.15643    0.85633   1.00
C6       0.51965    0.13427    0.86341   1.00
C6       0.50037    0.19346    0.85714   1.00
C6       0.55195    0.15741    0.86933   1.00
C6       0.53969    0.19505    0.86533   1.00
H3       0.51912    0.10303    0.86458   1.00
H3       0.48165    0.21800    0.85237   1.00
H3       0.58118    0.14787    0.87580   1.00
H3       0.55744    0.22075    0.86811   1.00
N1       0.32201    0.17357    0.92831   1.00
C6       0.31438    0.13654    0.93761   1.00
C6       0.30575    0.19573    0.95596   1.00
C6       0.29343    0.13495    0.97188   1.00
C6       0.28795    0.17259    0.98356   1.00
H3       0.32372    0.11200    0.92071   1.00
H3       0.30697    0.22697    0.95638   1.00
H3       0.28331    0.10925    0.98673   1.00
H3       0.27266    0.18213    1.00929   1.00
C4       0.41508    0.41482    0.68585   1.00
C4       0.41492    0.41518    0.64415   1.00
C3a      0.40519    0.38064    0.70754   1.00
C3       0.44637    0.39954    0.62268   1.00
C3       0.42521    0.44845    0.70732   1.00
C3a      0.38324    0.43137    0.62246   1.00
C2       0.41508    0.41503    0.77012   1.00
C2       0.41507    0.41504    0.55988   1.00
C3       0.40527    0.38132    0.74905   1.00
C3       0.44635    0.39938    0.58137   1.00
C3       0.42508    0.44854    0.74863   1.00
C3       0.38379    0.43097    0.58095   1.00
C5       0.39380    0.34310    0.68728   1.00
H1       0.47095    0.38699    0.63809   1.00
H1       0.39754    0.35532    0.76521   1.00
H1       0.47094    0.38690    0.56599   1.00
H1       0.43281    0.47502    0.76401   1.00
H1       0.35955    0.44313    0.56479   1.00
C5       0.34807    0.44877    0.64272   1.00
H1       0.43289    0.47496    0.69191   1.00
H2       0.32280    0.44923    0.62244   1.00
H2       0.33918    0.43013    0.66769   1.00
H2       0.37683    0.32436    0.70756   1.00
H2       0.37412    0.34937    0.66231   1.00
N1       0.35633    0.48836    0.65643   1.00
C6       0.36341    0.51965    0.63427   1.00
C6       0.35714    0.50037    0.69346   1.00
C6       0.36933    0.55195    0.65741   1.00
C6       0.36533    0.53969    0.69505   1.00
H3       0.36458    0.51912    0.60303   1.00
H3       0.35237    0.48165    0.71800   1.00
H3       0.37580    0.58118    0.64787   1.00
H3       0.36811    0.55744    0.72075   1.00
N1       0.42831    0.32201    0.67357   1.00
C6       0.43761    0.31438    0.63654   1.00
C6       0.45596    0.30575    0.69573   1.00
C6       0.47188    0.29343    0.63495   1.00
C6       0.48356    0.28795    0.67259   1.00
H3       0.42071    0.32372    0.61200   1.00
H3       0.45638    0.30697    0.72697   1.00
H3       0.48673    0.28331    0.60925   1.00
H3       0.50929    0.27266    0.68213   1.00
C4       0.41508    0.91518    0.64415   1.00
C4       0.41492    0.91482    0.68585   1.00
C3a      0.40519    0.94936    0.62246   1.00
C3       0.44637    0.93046    0.70732   1.00
C3       0.42521    0.88155    0.62268   1.00
C3a      0.38324    0.89863    0.70754   1.00
C2       0.41508    0.91497    0.55988   1.00
C2       0.41507    0.91496    0.77012   1.00
C3       0.40527    0.94868    0.58095   1.00
C3       0.44635    0.93062    0.74863   1.00
C3       0.42508    0.88146    0.58137   1.00
C3       0.38379    0.89903    0.74905   1.00
C5       0.39380    0.98690    0.64272   1.00
H1       0.47095    0.94301    0.69191   1.00
H1       0.39754    0.97468    0.56479   1.00
H1       0.47094    0.94310    0.76401   1.00
H1       0.43281    0.85498    0.56599   1.00
H1       0.35955    0.88687    0.76521   1.00
C5       0.34807    0.88123    0.68728   1.00
H1       0.43289    0.85504    0.63809   1.00
H2       0.32280    0.88077    0.70756   1.00
H2       0.33918    0.89987    0.66231   1.00
H2       0.37683    1.00564    0.62244   1.00
H2       0.37412    0.98063    0.66769   1.00
N1       0.35633    0.84164    0.67357   1.00
C6       0.36341    0.81035    0.69573   1.00
C6       0.35714    0.82963    0.63654   1.00
C6       0.36933    0.77805    0.67259   1.00
C6       0.36533    0.79031    0.63495   1.00
H3       0.36458    0.81088    0.72697   1.00
H3       0.35237    0.84835    0.61200   1.00
H3       0.37580    0.74882    0.68213   1.00
H3       0.36811    0.77256    0.60925   1.00
N1       0.42831    1.00799    0.65643   1.00
C6       0.43761    1.01562    0.69346   1.00
C6       0.45596    1.02425    0.63427   1.00
C6       0.47188    1.03657    0.69505   1.00
C6       0.48356    1.04205    0.65741   1.00
H3       0.42071    1.00628    0.71800   1.00
H3       0.45638    1.02303    0.60303   1.00
H3       0.48673    1.04669    0.72075   1.00
H3       0.50929    1.05734    0.64787   1.00
C4       0.41518    1.14415    0.41508   1.00
C4       0.41482    1.18585    0.41492   1.00
C3a      0.44936    1.12246    0.40519   1.00
C3       0.43046    1.20732    0.44637   1.00
C3       0.38155    1.12268    0.42521   1.00
C3a      0.39863    1.20754    0.38324   1.00
C2       0.41497    1.05988    0.41508   1.00
C2       0.41496    1.27012    0.41507   1.00
C3       0.44868    1.08095    0.40527   1.00
C3       0.43062    1.24863    0.44635   1.00
C3       0.38146    1.08137    0.42508   1.00
C3       0.39903    1.24905    0.38379   1.00
C5       0.48690    1.14272    0.39380   1.00
H1       0.44301    1.19191    0.47095   1.00
H1       0.47468    1.06479    0.39754   1.00
H1       0.44310    1.26401    0.47094   1.00
H1       0.35498    1.06599    0.43281   1.00
H1       0.38687    1.26521    0.35955   1.00
C5       0.38123    1.18728    0.34807   1.00
H1       0.35504    1.13809    0.43289   1.00
H2       0.38077    1.20756    0.32280   1.00
H2       0.39987    1.16231    0.33918   1.00
H2       0.50564    1.12244    0.37683   1.00
H2       0.48063    1.16769    0.37412   1.00
N1       0.34164    1.17357    0.35633   1.00
C6       0.31035    1.19573    0.36341   1.00
C6       0.32963    1.13654    0.35714   1.00
C6       0.27805    1.17259    0.36933   1.00
C6       0.29031    1.13495    0.36533   1.00
H3       0.31088    1.22697    0.36458   1.00
H3       0.34835    1.11200    0.35237   1.00
H3       0.24882    1.18213    0.37580   1.00
H3       0.27256    1.10925    0.36811   1.00
N1       0.50799    1.15643    0.42831   1.00
C6       0.51562    1.19346    0.43761   1.00
C6       0.52425    1.13427    0.45596   1.00
C6       0.53657    1.19505    0.47188   1.00
C6       0.54205    1.15741    0.48356   1.00
H3       0.50628    1.21800    0.42071   1.00
H3       0.52303    1.10303    0.45638   1.00
H3       0.54669    1.22075    0.48673   1.00
H3       0.55734    1.14787    0.50929   1.00
C4       0.18585    0.91508    0.41482   1.00
C4       0.14415    0.91492    0.41518   1.00
C3a      0.20754    0.90519    0.38064   1.00
C3       0.12268    0.94637    0.39954   1.00
C3       0.20732    0.92521    0.44845   1.00
C3a      0.12246    0.88324    0.43137   1.00
C2       0.27012    0.91508    0.41503   1.00
C2       0.05988    0.91507    0.41504   1.00
C3       0.24905    0.90527    0.38132   1.00
C3       0.08137    0.94635    0.39938   1.00
C3       0.24863    0.92508    0.44854   1.00
C3       0.08095    0.88379    0.43097   1.00
C5       0.18728    0.89380    0.34310   1.00
H1       0.13809    0.97095    0.38699   1.00
H1       0.26521    0.89754    0.35532   1.00
H1       0.06599    0.97094    0.38690   1.00
H1       0.26401    0.93281    0.47502   1.00
H1       0.06479    0.85955    0.44313   1.00
C5       0.14272    0.84807    0.44877   1.00
H1       0.19191    0.93289    0.47496   1.00
H2       0.12244    0.82280    0.44923   1.00
H2       0.16769    0.83918    0.43013   1.00
H2       0.20756    0.87683    0.32436   1.00
H2       0.16231    0.87412    0.34937   1.00
N1       0.15643    0.85633    0.48836   1.00
C6       0.13427    0.86341    0.51965   1.00
C6       0.19346    0.85714    0.50037   1.00
C6       0.15741    0.86933    0.55195   1.00
C6       0.19505    0.86533    0.53969   1.00
H3       0.10303    0.86458    0.51912   1.00
H3       0.21800    0.85237    0.48165   1.00
H3       0.14787    0.87580    0.58118   1.00
H3       0.22075    0.86811    0.55744   1.00
N1       0.17357    0.92831    0.32201   1.00
C6       0.13654    0.93761    0.31438   1.00
C6       0.19573    0.95596    0.30575   1.00
C6       0.13495    0.97188    0.29343   1.00
C6       0.17259    0.98356    0.28795   1.00
H3       0.11200    0.92071    0.32372   1.00
H3       0.22697    0.95638    0.30697   1.00
H3       0.10925    0.98673    0.28331   1.00
H3       0.18213    1.00929    0.27266   1.00
C4       0.64415    0.91508    0.41518   1.00
C4       0.68585    0.91492    0.41482   1.00
C3a      0.62246    0.90519    0.44936   1.00
C3       0.70732    0.94637    0.43046   1.00
C3       0.62268    0.92521    0.38155   1.00
C3a      0.70754    0.88324    0.39863   1.00
C2       0.55988    0.91508    0.41497   1.00
C2       0.77012    0.91507    0.41496   1.00
C3       0.58095    0.90527    0.44868   1.00
C3       0.74863    0.94635    0.43062   1.00
C3       0.58137    0.92508    0.38146   1.00
C3       0.74905    0.88379    0.39903   1.00
C5       0.64272    0.89380    0.48690   1.00
H1       0.69191    0.97095    0.44301   1.00
H1       0.56479    0.89754    0.47468   1.00
H1       0.76401    0.97094    0.44310   1.00
H1       0.56599    0.93281    0.35498   1.00
H1       0.76521    0.85955    0.38687   1.00
C5       0.68728    0.84807    0.38123   1.00
H1       0.63809    0.93289    0.35504   1.00
H2       0.70756    0.82280    0.38077   1.00
H2       0.66231    0.83918    0.39987   1.00
H2       0.62244    0.87683    0.50564   1.00
H2       0.66769    0.87412    0.48063   1.00
N1       0.67357    0.85633    0.34164   1.00
C6       0.69573    0.86341    0.31035   1.00
C6       0.63654    0.85714    0.32963   1.00
C6       0.67259    0.86933    0.27805   1.00
C6       0.63495    0.86533    0.29031   1.00
H3       0.72697    0.86458    0.31088   1.00
H3       0.61200    0.85237    0.34835   1.00
H3       0.68213    0.87580    0.24882   1.00
H3       0.60925    0.86811    0.27256   1.00
N1       0.65643    0.92831    0.50799   1.00
C6       0.69346    0.93761    0.51562   1.00
C6       0.63427    0.95596    0.52425   1.00
C6       0.69505    0.97188    0.53657   1.00
C6       0.65741    0.98356    0.54205   1.00
H3       0.71800    0.92071    0.50628   1.00
H3       0.60303    0.95638    0.52303   1.00
H3       0.72075    0.98673    0.54669   1.00
H3       0.64787    1.00929    0.55734   1.00
C4       0.41482    0.68585    0.41508   1.00
C4       0.41518    0.64415    0.41492   1.00
C3a      0.38064    0.70754    0.40519   1.00
C3       0.39954    0.62268    0.44637   1.00
C3       0.44845    0.70732    0.42521   1.00
C3a      0.43137    0.62246    0.38324   1.00
C2       0.41503    0.77012    0.41508   1.00
C2       0.41504    0.55988    0.41507   1.00
C3       0.38132    0.74905    0.40527   1.00
C3       0.39938    0.58137    0.44635   1.00
C3       0.44854    0.74863    0.42508   1.00
C3       0.43097    0.58095    0.38379   1.00
C5       0.34310    0.68728    0.39380   1.00
H1       0.38699    0.63809    0.47095   1.00
H1       0.35532    0.76521    0.39754   1.00
H1       0.38690    0.56599    0.47094   1.00
H1       0.47502    0.76401    0.43281   1.00
H1       0.44313    0.56479    0.35955   1.00
C5       0.44877    0.64272    0.34807   1.00
H1       0.47496    0.69191    0.43289   1.00
H2       0.44923    0.62244    0.32280   1.00
H2       0.43013    0.66769    0.33918   1.00
H2       0.32436    0.70756    0.37683   1.00
H2       0.34937    0.66231    0.37412   1.00
N1       0.48836    0.65643    0.35633   1.00
C6       0.51965    0.63427    0.36341   1.00
C6       0.50037    0.69346    0.35714   1.00
C6       0.55195    0.65741    0.36933   1.00
C6       0.53969    0.69505    0.36533   1.00
H3       0.51912    0.60303    0.36458   1.00
H3       0.48165    0.71800    0.35237   1.00
H3       0.58118    0.64787    0.37580   1.00
H3       0.55744    0.72075    0.36811   1.00
N1       0.32201    0.67357    0.42831   1.00
C6       0.31438    0.63654    0.43761   1.00
C6       0.30575    0.69573    0.45596   1.00
C6       0.29343    0.63495    0.47188   1.00
C6       0.28795    0.67259    0.48356   1.00
H3       0.32372    0.61200    0.42071   1.00
H3       0.30697    0.72697    0.45638   1.00
H3       0.28331    0.60925    0.48673   1.00
H3       0.27266    0.68213    0.50929   1.00
C4       0.41508    0.91482    0.18585   1.00
C4       0.41492    0.91518    0.14415   1.00
C3a      0.40519    0.88064    0.20754   1.00
C3       0.44637    0.89954    0.12268   1.00
C3       0.42521    0.94845    0.20732   1.00
C3a      0.38324    0.93137    0.12246   1.00
C2       0.41508    0.91503    0.27012   1.00
C2       0.41507    0.91504    0.05988   1.00
C3       0.40527    0.88132    0.24905   1.00
C3       0.44635    0.89938    0.08137   1.00
C3       0.42508    0.94854    0.24863   1.00
C3       0.38379    0.93097    0.08095   1.00
C5       0.39380    0.84310    0.18728   1.00
H1       0.47095    0.88699    0.13809   1.00
H1       0.39754    0.85532    0.26521   1.00
H1       0.47094    0.88690    0.06599   1.00
H1       0.43281    0.97502    0.26401   1.00
H1       0.35955    0.94313    0.06479   1.00
C5       0.34807    0.94877    0.14272   1.00
H1       0.43289    0.97496    0.19191   1.00
H2       0.32280    0.94923    0.12244   1.00
H2       0.33918    0.93013    0.16769   1.00
H2       0.37683    0.82436    0.20756   1.00
H2       0.37412    0.84937    0.16231   1.00
N1       0.35633    0.98836    0.15643   1.00
C6       0.36341    1.01965    0.13427   1.00
C6       0.35714    1.00037    0.19346   1.00
C6       0.36933    1.05195    0.15741   1.00
C6       0.36533    1.03969    0.19505   1.00
H3       0.36458    1.01912    0.10303   1.00
H3       0.35237    0.98165    0.21800   1.00
H3       0.37580    1.08118    0.14787   1.00
H3       0.36811    1.05744    0.22075   1.00
N1       0.42831    0.82201    0.17357   1.00
C6       0.43761    0.81438    0.13654   1.00
C6       0.45596    0.80575    0.19573   1.00
C6       0.47188    0.79343    0.13495   1.00
C6       0.48356    0.78795    0.17259   1.00
H3       0.42071    0.82372    0.11200   1.00
H3       0.45638    0.80697    0.22697   1.00
H3       0.48673    0.78331    0.10925   1.00
H3       0.50929    0.77266    0.18213   1.00
C4       0.91508    0.41518    0.64415   1.00
C4       0.91492    0.41482    0.68585   1.00
C3a      0.90519    0.44936    0.62246   1.00
C3       0.94637    0.43046    0.70732   1.00
C3       0.92521    0.38155    0.62268   1.00
C3a      0.88324    0.39863    0.70754   1.00
C2       0.91508    0.41497    0.55988   1.00
C2       0.91507    0.41496    0.77012   1.00
C3       0.90527    0.44868    0.58095   1.00
C3       0.94635    0.43062    0.74863   1.00
C3       0.92508    0.38146    0.58137   1.00
C3       0.88379    0.39903    0.74905   1.00
C5       0.89380    0.48690    0.64272   1.00
H1       0.97095    0.44301    0.69191   1.00
H1       0.89754    0.47468    0.56479   1.00
H1       0.97094    0.44310    0.76401   1.00
H1       0.93281    0.35498    0.56599   1.00
H1       0.85955    0.38687    0.76521   1.00
C5       0.84807    0.38123    0.68728   1.00
H1       0.93289    0.35504    0.63809   1.00
H2       0.82280    0.38077    0.70756   1.00
H2       0.83918    0.39987    0.66231   1.00
H2       0.87683    0.50564    0.62244   1.00
H2       0.87412    0.48063    0.66769   1.00
N1       0.85633    0.34164    0.67357   1.00
C6       0.86341    0.31035    0.69573   1.00
C6       0.85714    0.32963    0.63654   1.00
C6       0.86933    0.27805    0.67259   1.00
C6       0.86533    0.29031    0.63495   1.00
H3       0.86458    0.31088    0.72697   1.00
H3       0.85237    0.34835    0.61200   1.00
H3       0.87580    0.24882    0.68213   1.00
H3       0.86811    0.27256    0.60925   1.00
N1       0.92831    0.50799    0.65643   1.00
C6       0.93761    0.51562    0.69346   1.00
C6       0.95596    0.52425    0.63427   1.00
C6       0.97188    0.53657    0.69505   1.00
C6       0.98356    0.54205    0.65741   1.00
H3       0.92071    0.50628    0.71800   1.00
H3       0.95638    0.52303    0.60303   1.00
H3       0.98673    0.54669    0.72075   1.00
H3       1.00929    0.55734    0.64787   1.00
C4       0.91518    0.64415    0.41508   1.00
C4       0.91482    0.68585    0.41492   1.00
C3a      0.94936    0.62246    0.40519   1.00
C3       0.93046    0.70732    0.44637   1.00
C3       0.88155    0.62268    0.42521   1.00
C3a      0.89863    0.70754    0.38324   1.00
C2       0.91497    0.55988    0.41508   1.00
C2       0.91496    0.77012    0.41507   1.00
C3       0.94868    0.58095    0.40527   1.00
C3       0.93062    0.74863    0.44635   1.00
C3       0.88146    0.58137    0.42508   1.00
C3       0.89903    0.74905    0.38379   1.00
C5       0.98690    0.64272    0.39380   1.00
H1       0.94301    0.69191    0.47095   1.00
H1       0.97468    0.56479    0.39754   1.00
H1       0.94310    0.76401    0.47094   1.00
H1       0.85498    0.56599    0.43281   1.00
H1       0.88687    0.76521    0.35955   1.00
C5       0.88123    0.68728    0.34807   1.00
H1       0.85504    0.63809    0.43289   1.00
H2       0.88077    0.70756    0.32280   1.00
H2       0.89987    0.66231    0.33918   1.00
H2       1.00564    0.62244    0.37683   1.00
H2       0.98063    0.66769    0.37412   1.00
N1       0.84164    0.67357    0.35633   1.00
C6       0.81035    0.69573    0.36341   1.00
C6       0.82963    0.63654    0.35714   1.00
C6       0.77805    0.67259    0.36933   1.00
C6       0.79031    0.63495    0.36533   1.00
H3       0.81088    0.72697    0.36458   1.00
H3       0.84835    0.61200    0.35237   1.00
H3       0.74882    0.68213    0.37580   1.00
H3       0.77256    0.60925    0.36811   1.00
N1       1.00799    0.65643    0.42831   1.00
C6       1.01562    0.69346    0.43761   1.00
C6       1.02425    0.63427    0.45596   1.00
C6       1.03657    0.69505    0.47188   1.00
C6       1.04205    0.65741    0.48356   1.00
H3       1.00628    0.71800    0.42071   1.00
H3       1.02303    0.60303    0.45638   1.00
H3       1.04669    0.72075    0.48673   1.00
H3       1.05734    0.64787    0.50929   1.00
C4       0.68585    0.41508    0.41482   1.00
C4       0.64415    0.41492    0.41518   1.00
C3a      0.70754    0.40519    0.38064   1.00
C3       0.62268    0.44637    0.39954   1.00
C3       0.70732    0.42521    0.44845   1.00
C3a      0.62246    0.38324    0.43137   1.00
C2       0.77012    0.41508    0.41503   1.00
C2       0.55988    0.41507    0.41504   1.00
C3       0.74905    0.40527    0.38132   1.00
C3       0.58137    0.44635    0.39938   1.00
C3       0.74863    0.42508    0.44854   1.00
C3       0.58095    0.38379    0.43097   1.00
C5       0.68728    0.39380    0.34310   1.00
H1       0.63809    0.47095    0.38699   1.00
H1       0.76521    0.39754    0.35532   1.00
H1       0.56599    0.47094    0.38690   1.00
H1       0.76401    0.43281    0.47502   1.00
H1       0.56479    0.35955    0.44313   1.00
C5       0.64272    0.34807    0.44877   1.00
H1       0.69191    0.43289    0.47496   1.00
H2       0.62244    0.32280    0.44923   1.00
H2       0.66769    0.33918    0.43013   1.00
H2       0.70756    0.37683    0.32436   1.00
H2       0.66231    0.37412    0.34937   1.00
N1       0.65643    0.35633    0.48836   1.00
C6       0.63427    0.36341    0.51965   1.00
C6       0.69346    0.35714    0.50037   1.00
C6       0.65741    0.36933    0.55195   1.00
C6       0.69505    0.36533    0.53969   1.00
H3       0.60303    0.36458    0.51912   1.00
H3       0.71800    0.35237    0.48165   1.00
H3       0.64787    0.37580    0.58118   1.00
H3       0.72075    0.36811    0.55744   1.00
N1       0.67357    0.42831    0.32201   1.00
C6       0.63654    0.43761    0.31438   1.00
C6       0.69573    0.45596    0.30575   1.00
C6       0.63495    0.47188    0.29343   1.00
C6       0.67259    0.48356    0.28795   1.00
H3       0.61200    0.42071    0.32372   1.00
H3       0.72697    0.45638    0.30697   1.00
H3       0.60925    0.48673    0.28331   1.00
H3       0.68213    0.50929    0.27266   1.00
C4       1.14415    0.41508    0.41518   1.00
C4       1.18585    0.41492    0.41482   1.00
C3a      1.12246    0.40519    0.44936   1.00
C3       1.20732    0.44637    0.43046   1.00
C3       1.12268    0.42521    0.38155   1.00
C3a      1.20754    0.38324    0.39863   1.00
C2       1.05988    0.41508    0.41497   1.00
C2       1.27012    0.41507    0.41496   1.00
C3       1.08095    0.40527    0.44868   1.00
C3       1.24863    0.44635    0.43062   1.00
C3       1.08137    0.42508    0.38146   1.00
C3       1.24905    0.38379    0.39903   1.00
C5       1.14272    0.39380    0.48690   1.00
H1       1.19191    0.47095    0.44301   1.00
H1       1.06479    0.39754    0.47468   1.00
H1       1.26401    0.47094    0.44310   1.00
H1       1.06599    0.43281    0.35498   1.00
H1       1.26521    0.35955    0.38687   1.00
C5       1.18728    0.34807    0.38123   1.00
H1       1.13809    0.43289    0.35504   1.00
H2       1.20756    0.32280    0.38077   1.00
H2       1.16231    0.33918    0.39987   1.00
H2       1.12244    0.37683    0.50564   1.00
H2       1.16769    0.37412    0.48063   1.00
N1       1.17357    0.35633    0.34164   1.00
C6       1.19573    0.36341    0.31035   1.00
C6       1.13654    0.35714    0.32963   1.00
C6       1.17259    0.36933    0.27805   1.00
C6       1.13495    0.36533    0.29031   1.00
H3       1.22697    0.36458    0.31088   1.00
H3       1.11200    0.35237    0.34835   1.00
H3       1.18213    0.37580    0.24882   1.00
H3       1.10925    0.36811    0.27256   1.00
N1       1.15643    0.42831    0.50799   1.00
C6       1.19346    0.43761    0.51562   1.00
C6       1.13427    0.45596    0.52425   1.00
C6       1.19505    0.47188    0.53657   1.00
C6       1.15741    0.48356    0.54205   1.00
H3       1.21800    0.42071    0.50628   1.00
H3       1.10303    0.45638    0.52303   1.00
H3       1.22075    0.48673    0.54669   1.00
H3       1.14787    0.50929    0.55734   1.00
C4       0.91482    0.18585    0.41508   1.00
C4       0.91518    0.14415    0.41492   1.00
C3a      0.88064    0.20754    0.40519   1.00
C3       0.89954    0.12268    0.44637   1.00
C3       0.94845    0.20732    0.42521   1.00
C3a      0.93137    0.12246    0.38324   1.00
C2       0.91503    0.27012    0.41508   1.00
C2       0.91504    0.05988    0.41507   1.00
C3       0.88132    0.24905    0.40527   1.00
C3       0.89938    0.08137    0.44635   1.00
C3       0.94854    0.24863    0.42508   1.00
C3       0.93097    0.08095    0.38379   1.00
C5       0.84310    0.18728    0.39380   1.00
H1       0.88699    0.13809    0.47095   1.00
H1       0.85532    0.26521    0.39754   1.00
H1       0.88690    0.06599    0.47094   1.00
H1       0.97502    0.26401    0.43281   1.00
H1       0.94313    0.06479    0.35955   1.00
C5       0.94877    0.14272    0.34807   1.00
H1       0.97496    0.19191    0.43289   1.00
H2       0.94923    0.12244    0.32280   1.00
H2       0.93013    0.16769    0.33918   1.00
H2       0.82436    0.20756    0.37683   1.00
H2       0.84937    0.16231    0.37412   1.00
N1       0.98836    0.15643    0.35633   1.00
C6       1.01965    0.13427    0.36341   1.00
C6       1.00037    0.19346    0.35714   1.00
C6       1.05195    0.15741    0.36933   1.00
C6       1.03969    0.19505    0.36533   1.00
H3       1.01912    0.10303    0.36458   1.00
H3       0.98165    0.21800    0.35237   1.00
H3       1.08118    0.14787    0.37580   1.00
H3       1.05744    0.22075    0.36811   1.00
N1       0.82201    0.17357    0.42831   1.00
C6       0.81438    0.13654    0.43761   1.00
C6       0.80575    0.19573    0.45596   1.00
C6       0.79343    0.13495    0.47188   1.00
C6       0.78795    0.17259    0.48356   1.00
H3       0.82372    0.11200    0.42071   1.00
H3       0.80697    0.22697    0.45638   1.00
H3       0.78331    0.10925    0.48673   1.00
H3       0.77266    0.18213    0.50929   1.00
C4       0.91508    0.41482    0.18585   1.00
C4       0.91492    0.41518    0.14415   1.00
C3a      0.90519    0.38064    0.20754   1.00
C3       0.94637    0.39954    0.12268   1.00
C3       0.92521    0.44845    0.20732   1.00
C3a      0.88324    0.43137    0.12246   1.00
C2       0.91508    0.41503    0.27012   1.00
C2       0.91507    0.41504    0.05988   1.00
C3       0.90527    0.38132    0.24905   1.00
C3       0.94635    0.39938    0.08137   1.00
C3       0.92508    0.44854    0.24863   1.00
C3       0.88379    0.43097    0.08095   1.00
C5       0.89380    0.34310    0.18728   1.00
H1       0.97095    0.38699    0.13809   1.00
H1       0.89754    0.35532    0.26521   1.00
H1       0.97094    0.38690    0.06599   1.00
H1       0.93281    0.47502    0.26401   1.00
H1       0.85955    0.44313    0.06479   1.00
C5       0.84807    0.44877    0.14272   1.00
H1       0.93289    0.47496    0.19191   1.00
H2       0.82280    0.44923    0.12244   1.00
H2       0.83918    0.43013    0.16769   1.00
H2       0.87683    0.32436    0.20756   1.00
H2       0.87412    0.34937    0.16231   1.00
N1       0.85633    0.48836    0.15643   1.00
C6       0.86341    0.51965    0.13427   1.00
C6       0.85714    0.50037    0.19346   1.00
C6       0.86933    0.55195    0.15741   1.00
C6       0.86533    0.53969    0.19505   1.00
H3       0.86458    0.51912    0.10303   1.00
H3       0.85237    0.48165    0.21800   1.00
H3       0.87580    0.58118    0.14787   1.00
H3       0.86811    0.55744    0.22075   1.00
N1       0.92831    0.32201    0.17357   1.00
C6       0.93761    0.31438    0.13654   1.00
C6       0.95596    0.30575    0.19573   1.00
C6       0.97188    0.29343    0.13495   1.00
C6       0.98356    0.28795    0.17259   1.00
H3       0.92071    0.32372    0.11200   1.00
H3       0.95638    0.30697    0.22697   1.00
H3       0.98673    0.28331    0.10925   1.00
H3       1.00929    0.27266    0.18213   1.00
