data_IRMOF10_SG202_interpen_Ligand8cp_label_v.

_audit_creation_method             'generated by an auxiliary program of Tobunporous'

_symmetry_space_group_name_H-M     'P 1'
_symmetry_Int_Tables_number        1
_symmetry_cell_setting             triclinic

_cell_length_a                    34.2800
_cell_length_b                    34.2800
_cell_length_c                    34.2800
_cell_angle_alpha                 90.0000
_cell_angle_beta                  90.0000
_cell_angle_gamma                 90.0000

loop_
_atom_site_label
_atom_site_fract_x
_atom_site_fract_y
_atom_site_fract_z
_atom_site_occupancy
O1       0.75000    0.75000    0.75000   1.00
Zn1      0.71720    0.78280    0.78280   1.00
Zn1      0.78280    0.71720    0.78280   1.00
Zn1      0.78280    0.78280    0.71720   1.00
Zn1      0.71720    0.71720    0.71720   1.00
O2       0.72650    0.77350    0.83820   1.00
O2       0.72650    0.83820    0.77350   1.00
O2       0.66180    0.77350    0.77350   1.00
O2       0.77350    0.72650    0.83820   1.00
O2       0.83820    0.72650    0.77350   1.00
O2       0.77350    0.66180    0.77350   1.00
O2       0.77350    0.83820    0.72650   1.00
O2       0.83820    0.77350    0.72650   1.00
O2       0.77350    0.77350    0.66180   1.00
O2       0.66180    0.72650    0.72650   1.00
O2       0.72650    0.66180    0.72650   1.00
O2       0.72650    0.72650    0.66180   1.00
C1       0.75000    0.75000    0.85520   1.00
C1       0.75000    0.85520    0.75000   1.00
C1       0.64480    0.75000    0.75000   1.00
C1       0.85520    0.75000    0.75000   1.00
C1       0.75000    0.64480    0.75000   1.00
C1       0.75000    0.75000    0.64480   1.00
O1       0.25000    0.25000    0.75000   1.00
Zn1      0.21720    0.28280    0.78280   1.00
Zn1      0.28280    0.21720    0.78280   1.00
Zn1      0.28280    0.28280    0.71720   1.00
Zn1      0.21720    0.21720    0.71720   1.00
O2       0.22650    0.27350    0.83820   1.00
O2       0.22650    0.33820    0.77350   1.00
O2       0.16180    0.27350    0.77350   1.00
O2       0.27350    0.22650    0.83820   1.00
O2       0.33820    0.22650    0.77350   1.00
O2       0.27350    0.16180    0.77350   1.00
O2       0.27350    0.33820    0.72650   1.00
O2       0.33820    0.27350    0.72650   1.00
O2       0.27350    0.27350    0.66180   1.00
O2       0.16180    0.22650    0.72650   1.00
O2       0.22650    0.16180    0.72650   1.00
O2       0.22650    0.22650    0.66180   1.00
C1       0.25000    0.25000    0.85520   1.00
C1       0.25000    0.35520    0.75000   1.00
C1       0.14480    0.25000    0.75000   1.00
C1       0.35520    0.25000    0.75000   1.00
C1       0.25000    0.14480    0.75000   1.00
C1       0.25000    0.25000    0.64480   1.00
O1       0.25000    0.75000    0.25000   1.00
Zn1      0.21720    0.78280    0.28280   1.00
Zn1      0.28280    0.71720    0.28280   1.00
Zn1      0.28280    0.78280    0.21720   1.00
Zn1      0.21720    0.71720    0.21720   1.00
O2       0.22650    0.77350    0.33820   1.00
O2       0.22650    0.83820    0.27350   1.00
O2       0.16180    0.77350    0.27350   1.00
O2       0.27350    0.72650    0.33820   1.00
O2       0.33820    0.72650    0.27350   1.00
O2       0.27350    0.66180    0.27350   1.00
O2       0.27350    0.83820    0.22650   1.00
O2       0.33820    0.77350    0.22650   1.00
O2       0.27350    0.77350    0.16180   1.00
O2       0.16180    0.72650    0.22650   1.00
O2       0.22650    0.66180    0.22650   1.00
O2       0.22650    0.72650    0.16180   1.00
C1       0.25000    0.75000    0.35520   1.00
C1       0.25000    0.85520    0.25000   1.00
C1       0.14480    0.75000    0.25000   1.00
C1       0.35520    0.75000    0.25000   1.00
C1       0.25000    0.64480    0.25000   1.00
C1       0.25000    0.75000    0.14480   1.00
O1       0.75000    0.25000    0.25000   1.00
Zn1      0.71720    0.28280    0.28280   1.00
Zn1      0.78280    0.21720    0.28280   1.00
Zn1      0.78280    0.28280    0.21720   1.00
Zn1      0.71720    0.21720    0.21720   1.00
O2       0.72650    0.27350    0.33820   1.00
O2       0.72650    0.33820    0.27350   1.00
O2       0.66180    0.27350    0.27350   1.00
O2       0.77350    0.22650    0.33820   1.00
O2       0.83820    0.22650    0.27350   1.00
O2       0.77350    0.16180    0.27350   1.00
O2       0.77350    0.33820    0.22650   1.00
O2       0.83820    0.27350    0.22650   1.00
O2       0.77350    0.27350    0.16180   1.00
O2       0.66180    0.22650    0.22650   1.00
O2       0.72650    0.16180    0.22650   1.00
O2       0.72650    0.22650    0.16180   1.00
C1       0.75000    0.25000    0.35520   1.00
C1       0.75000    0.35520    0.25000   1.00
C1       0.64480    0.25000    0.25000   1.00
C1       0.85520    0.25000    0.25000   1.00
C1       0.75000    0.14480    0.25000   1.00
C1       0.75000    0.25000    0.14480   1.00
O1       0.25000    0.25000    0.25000   1.00
Zn1      0.28280    0.21720    0.21720   1.00
Zn1      0.21720    0.28280    0.21720   1.00
Zn1      0.21720    0.21720    0.28280   1.00
Zn1      0.28280    0.28280    0.28280   1.00
O2       0.27350    0.22650    0.16180   1.00
O2       0.27350    0.16180    0.22650   1.00
O2       0.33820    0.22650    0.22650   1.00
O2       0.22650    0.27350    0.16180   1.00
O2       0.16180    0.27350    0.22650   1.00
O2       0.22650    0.33820    0.22650   1.00
O2       0.22650    0.16180    0.27350   1.00
O2       0.16180    0.22650    0.27350   1.00
O2       0.22650    0.22650    0.33820   1.00
O2       0.33820    0.27350    0.27350   1.00
O2       0.27350    0.33820    0.27350   1.00
O2       0.27350    0.27350    0.33820   1.00
C1       0.25000    0.25000    0.14480   1.00
C1       0.25000    0.14480    0.25000   1.00
C1       0.35520    0.25000    0.25000   1.00
C1       0.14480    0.25000    0.25000   1.00
C1       0.25000    0.35520    0.25000   1.00
C1       0.25000    0.25000    0.35520   1.00
O1       0.75000    0.75000    0.25000   1.00
Zn1      0.78280    0.71720    0.21720   1.00
Zn1      0.71720    0.78280    0.21720   1.00
Zn1      0.71720    0.71720    0.28280   1.00
Zn1      0.78280    0.78280    0.28280   1.00
O2       0.77350    0.72650    0.16180   1.00
O2       0.77350    0.66180    0.22650   1.00
O2       0.83820    0.72650    0.22650   1.00
O2       0.72650    0.77350    0.16180   1.00
O2       0.66180    0.77350    0.22650   1.00
O2       0.72650    0.83820    0.22650   1.00
O2       0.72650    0.66180    0.27350   1.00
O2       0.66180    0.72650    0.27350   1.00
O2       0.72650    0.72650    0.33820   1.00
O2       0.83820    0.77350    0.27350   1.00
O2       0.77350    0.83820    0.27350   1.00
O2       0.77350    0.77350    0.33820   1.00
C1       0.75000    0.75000    0.14480   1.00
C1       0.75000    0.64480    0.25000   1.00
C1       0.85520    0.75000    0.25000   1.00
C1       0.64480    0.75000    0.25000   1.00
C1       0.75000    0.85520    0.25000   1.00
C1       0.75000    0.75000    0.35520   1.00
O1       0.75000    0.25000    0.75000   1.00
Zn1      0.78280    0.21720    0.71720   1.00
Zn1      0.71720    0.28280    0.71720   1.00
Zn1      0.71720    0.21720    0.78280   1.00
Zn1      0.78280    0.28280    0.78280   1.00
O2       0.77350    0.22650    0.66180   1.00
O2       0.77350    0.16180    0.72650   1.00
O2       0.83820    0.22650    0.72650   1.00
O2       0.72650    0.27350    0.66180   1.00
O2       0.66180    0.27350    0.72650   1.00
O2       0.72650    0.33820    0.72650   1.00
O2       0.72650    0.16180    0.77350   1.00
O2       0.66180    0.22650    0.77350   1.00
O2       0.72650    0.22650    0.83820   1.00
O2       0.83820    0.27350    0.77350   1.00
O2       0.77350    0.33820    0.77350   1.00
O2       0.77350    0.27350    0.83820   1.00
C1       0.75000    0.25000    0.64480   1.00
C1       0.75000    0.14480    0.75000   1.00
C1       0.85520    0.25000    0.75000   1.00
C1       0.64480    0.25000    0.75000   1.00
C1       0.75000    0.35520    0.75000   1.00
C1       0.75000    0.25000    0.85520   1.00
O1       0.25000    0.75000    0.75000   1.00
Zn1      0.28280    0.71720    0.71720   1.00
Zn1      0.21720    0.78280    0.71720   1.00
Zn1      0.21720    0.71720    0.78280   1.00
Zn1      0.28280    0.78280    0.78280   1.00
O2       0.27350    0.72650    0.66180   1.00
O2       0.27350    0.66180    0.72650   1.00
O2       0.33820    0.72650    0.72650   1.00
O2       0.22650    0.77350    0.66180   1.00
O2       0.16180    0.77350    0.72650   1.00
O2       0.22650    0.83820    0.72650   1.00
O2       0.22650    0.66180    0.77350   1.00
O2       0.16180    0.72650    0.77350   1.00
O2       0.22650    0.72650    0.83820   1.00
O2       0.33820    0.77350    0.77350   1.00
O2       0.27350    0.83820    0.77350   1.00
O2       0.27350    0.77350    0.83820   1.00
C1       0.25000    0.75000    0.64480   1.00
C1       0.25000    0.64480    0.75000   1.00
C1       0.35520    0.75000    0.75000   1.00
C1       0.14480    0.75000    0.75000   1.00
C1       0.25000    0.85520    0.75000   1.00
C1       0.25000    0.75000    0.85520   1.00
O1       0.91500    0.91500    0.91500   1.00
Zn1      0.88220    0.94780    0.94780   1.00
Zn1      0.94780    0.88220    0.94780   1.00
Zn1      0.94780    0.94780    0.88220   1.00
Zn1      0.88220    0.88220    0.88220   1.00
O2       0.89150    0.93850    1.00320   1.00
O2       0.89150    1.00320    0.93850   1.00
O2       0.82680    0.93850    0.93850   1.00
O2       0.93850    0.89150    1.00320   1.00
O2       1.00320    0.89150    0.93850   1.00
O2       0.93850    0.82680    0.93850   1.00
O2       0.93850    1.00320    0.89150   1.00
O2       1.00320    0.93850    0.89150   1.00
O2       0.93850    0.93850    0.82680   1.00
O2       0.82680    0.89150    0.89150   1.00
O2       0.89150    0.82680    0.89150   1.00
O2       0.89150    0.89150    0.82680   1.00
C1       0.91500    0.91500    1.02020   1.00
C1       0.91500    1.02020    0.91500   1.00
C1       0.80980    0.91500    0.91500   1.00
C1       1.02020    0.91500    0.91500   1.00
C1       0.91500    0.80980    0.91500   1.00
C1       0.91500    0.91500    0.80980   1.00
O1       0.41500    0.41500    0.91500   1.00
Zn1      0.38220    0.44780    0.94780   1.00
Zn1      0.44780    0.38220    0.94780   1.00
Zn1      0.44780    0.44780    0.88220   1.00
Zn1      0.38220    0.38220    0.88220   1.00
O2       0.39150    0.43850    1.00320   1.00
O2       0.39150    0.50320    0.93850   1.00
O2       0.32680    0.43850    0.93850   1.00
O2       0.43850    0.39150    1.00320   1.00
O2       0.50320    0.39150    0.93850   1.00
O2       0.43850    0.32680    0.93850   1.00
O2       0.43850    0.50320    0.89150   1.00
O2       0.50320    0.43850    0.89150   1.00
O2       0.43850    0.43850    0.82680   1.00
O2       0.32680    0.39150    0.89150   1.00
O2       0.39150    0.32680    0.89150   1.00
O2       0.39150    0.39150    0.82680   1.00
C1       0.41500    0.41500    1.02020   1.00
C1       0.41500    0.52020    0.91500   1.00
C1       0.30980    0.41500    0.91500   1.00
C1       0.52020    0.41500    0.91500   1.00
C1       0.41500    0.30980    0.91500   1.00
C1       0.41500    0.41500    0.80980   1.00
O1       0.41500    0.91500    0.41500   1.00
Zn1      0.38220    0.94780    0.44780   1.00
Zn1      0.44780    0.88220    0.44780   1.00
Zn1      0.44780    0.94780    0.38220   1.00
Zn1      0.38220    0.88220    0.38220   1.00
O2       0.39150    0.93850    0.50320   1.00
O2       0.39150    1.00320    0.43850   1.00
O2       0.32680    0.93850    0.43850   1.00
O2       0.43850    0.89150    0.50320   1.00
O2       0.50320    0.89150    0.43850   1.00
O2       0.43850    0.82680    0.43850   1.00
O2       0.43850    1.00320    0.39150   1.00
O2       0.50320    0.93850    0.39150   1.00
O2       0.43850    0.93850    0.32680   1.00
O2       0.32680    0.89150    0.39150   1.00
O2       0.39150    0.82680    0.39150   1.00
O2       0.39150    0.89150    0.32680   1.00
C1       0.41500    0.91500    0.52020   1.00
C1       0.41500    1.02020    0.41500   1.00
C1       0.30980    0.91500    0.41500   1.00
C1       0.52020    0.91500    0.41500   1.00
C1       0.41500    0.80980    0.41500   1.00
C1       0.41500    0.91500    0.30980   1.00
O1       0.91500    0.41500    0.41500   1.00
Zn1      0.88220    0.44780    0.44780   1.00
Zn1      0.94780    0.38220    0.44780   1.00
Zn1      0.94780    0.44780    0.38220   1.00
Zn1      0.88220    0.38220    0.38220   1.00
O2       0.89150    0.43850    0.50320   1.00
O2       0.89150    0.50320    0.43850   1.00
O2       0.82680    0.43850    0.43850   1.00
O2       0.93850    0.39150    0.50320   1.00
O2       1.00320    0.39150    0.43850   1.00
O2       0.93850    0.32680    0.43850   1.00
O2       0.93850    0.50320    0.39150   1.00
O2       1.00320    0.43850    0.39150   1.00
O2       0.93850    0.43850    0.32680   1.00
O2       0.82680    0.39150    0.39150   1.00
O2       0.89150    0.32680    0.39150   1.00
O2       0.89150    0.39150    0.32680   1.00
C1       0.91500    0.41500    0.52020   1.00
C1       0.91500    0.52020    0.41500   1.00
C1       0.80980    0.41500    0.41500   1.00
C1       1.02020    0.41500    0.41500   1.00
C1       0.91500    0.30980    0.41500   1.00
C1       0.91500    0.41500    0.30980   1.00
O1       0.41500    0.41500    0.41500   1.00
Zn1      0.44780    0.38220    0.38220   1.00
Zn1      0.38220    0.44780    0.38220   1.00
Zn1      0.38220    0.38220    0.44780   1.00
Zn1      0.44780    0.44780    0.44780   1.00
O2       0.43850    0.39150    0.32680   1.00
O2       0.43850    0.32680    0.39150   1.00
O2       0.50320    0.39150    0.39150   1.00
O2       0.39150    0.43850    0.32680   1.00
O2       0.32680    0.43850    0.39150   1.00
O2       0.39150    0.50320    0.39150   1.00
O2       0.39150    0.32680    0.43850   1.00
O2       0.32680    0.39150    0.43850   1.00
O2       0.39150    0.39150    0.50320   1.00
O2       0.50320    0.43850    0.43850   1.00
O2       0.43850    0.50320    0.43850   1.00
O2       0.43850    0.43850    0.50320   1.00
C1       0.41500    0.41500    0.30980   1.00
C1       0.41500    0.30980    0.41500   1.00
C1       0.52020    0.41500    0.41500   1.00
C1       0.30980    0.41500    0.41500   1.00
C1       0.41500    0.52020    0.41500   1.00
C1       0.41500    0.41500    0.52020   1.00
O1       0.91500    0.91500    0.41500   1.00
Zn1      0.94780    0.88220    0.38220   1.00
Zn1      0.88220    0.94780    0.38220   1.00
Zn1      0.88220    0.88220    0.44780   1.00
Zn1      0.94780    0.94780    0.44780   1.00
O2       0.93850    0.89150    0.32680   1.00
O2       0.93850    0.82680    0.39150   1.00
O2       1.00320    0.89150    0.39150   1.00
O2       0.89150    0.93850    0.32680   1.00
O2       0.82680    0.93850    0.39150   1.00
O2       0.89150    1.00320    0.39150   1.00
O2       0.89150    0.82680    0.43850   1.00
O2       0.82680    0.89150    0.43850   1.00
O2       0.89150    0.89150    0.50320   1.00
O2       1.00320    0.93850    0.43850   1.00
O2       0.93850    1.00320    0.43850   1.00
O2       0.93850    0.93850    0.50320   1.00
C1       0.91500    0.91500    0.30980   1.00
C1       0.91500    0.80980    0.41500   1.00
C1       1.02020    0.91500    0.41500   1.00
C1       0.80980    0.91500    0.41500   1.00
C1       0.91500    1.02020    0.41500   1.00
C1       0.91500    0.91500    0.52020   1.00
O1       0.91500    0.41500    0.91500   1.00
Zn1      0.94780    0.38220    0.88220   1.00
Zn1      0.88220    0.44780    0.88220   1.00
Zn1      0.88220    0.38220    0.94780   1.00
Zn1      0.94780    0.44780    0.94780   1.00
O2       0.93850    0.39150    0.82680   1.00
O2       0.93850    0.32680    0.89150   1.00
O2       1.00320    0.39150    0.89150   1.00
O2       0.89150    0.43850    0.82680   1.00
O2       0.82680    0.43850    0.89150   1.00
O2       0.89150    0.50320    0.89150   1.00
O2       0.89150    0.32680    0.93850   1.00
O2       0.82680    0.39150    0.93850   1.00
O2       0.89150    0.39150    1.00320   1.00
O2       1.00320    0.43850    0.93850   1.00
O2       0.93850    0.50320    0.93850   1.00
O2       0.93850    0.43850    1.00320   1.00
C1       0.91500    0.41500    0.80980   1.00
C1       0.91500    0.30980    0.91500   1.00
C1       1.02020    0.41500    0.91500   1.00
C1       0.80980    0.41500    0.91500   1.00
C1       0.91500    0.52020    0.91500   1.00
C1       0.91500    0.41500    1.02020   1.00
O1       0.41500    0.91500    0.91500   1.00
Zn1      0.44780    0.88220    0.88220   1.00
Zn1      0.38220    0.94780    0.88220   1.00
Zn1      0.38220    0.88220    0.94780   1.00
Zn1      0.44780    0.94780    0.94780   1.00
O2       0.43850    0.89150    0.82680   1.00
O2       0.43850    0.82680    0.89150   1.00
O2       0.50320    0.89150    0.89150   1.00
O2       0.39150    0.93850    0.82680   1.00
O2       0.32680    0.93850    0.89150   1.00
O2       0.39150    1.00320    0.89150   1.00
O2       0.39150    0.82680    0.93850   1.00
O2       0.32680    0.89150    0.93850   1.00
O2       0.39150    0.89150    1.00320   1.00
O2       0.50320    0.93850    0.93850   1.00
O2       0.43850    1.00320    0.93850   1.00
O2       0.43850    0.93850    1.00320   1.00
C1       0.41500    0.91500    0.80980   1.00
C1       0.41500    0.80980    0.91500   1.00
C1       0.52020    0.91500    0.91500   1.00
C1       0.30980    0.91500    0.91500   1.00
C1       0.41500    1.02020    0.91500   1.00
C1       0.41500    0.91500    1.02020   1.00
C4       0.74990    0.75000    0.97915   1.00
C4       0.75010    0.75000    1.02085   1.00
C3       0.72577    0.72494    0.95708   1.00
C3       0.73042    0.77918    1.04225   1.00
C3       0.77438    0.77568    0.95816   1.00
C3a      0.76966    0.72032    1.04263   1.00
C2       0.75125    0.75084    0.89483   1.00
C2       0.74863    0.74946    1.10517   1.00
C3       0.72650    0.72540    0.91566   1.00
C3       0.72972    0.77885    1.08359   1.00
C3       0.77516    0.77596    0.91680   1.00
C3       0.76851    0.72045    1.08415   1.00
H1       0.70633    0.70495    0.97192   1.00
H1       0.71523    0.80223    1.02685   1.00
H1       0.70765    0.70573    0.89968   1.00
H1       0.71422    0.80170    1.09895   1.00
H1       0.79473    0.79569    0.90179   1.00
H1       0.78353    0.69793    1.10043   1.00
C5       0.79274    0.68854    1.02239   1.00
H1       0.79379    0.79492    0.97401   1.00
H2       0.80255    0.66599    1.04354   1.00
H2       0.77363    0.67338    1.00103   1.00
N1       0.82706    0.70485    1.00292   1.00
C6       0.85628    0.72472    1.02012   1.00
C6       0.83538    0.70242    0.96460   1.00
C6       0.88343    0.73543    0.99243   1.00
C6       0.87013    0.72126    0.95711   1.00
H3       0.85774    0.73131    1.05099   1.00
H3       0.81709    0.68822    0.94309   1.00
H3       0.90998    0.75172    0.99741   1.00
H3       0.88415    0.72434    0.92903   1.00
C4       0.75000    0.97915    0.74990   1.00
C4       0.75000    1.02085    0.75010   1.00
C3       0.72494    0.95708    0.72577   1.00
C3       0.77918    1.04225    0.73042   1.00
C3       0.77568    0.95816    0.77438   1.00
C3a      0.72032    1.04263    0.76966   1.00
C2       0.75084    0.89483    0.75125   1.00
C2       0.74946    1.10517    0.74863   1.00
C3       0.72540    0.91566    0.72650   1.00
C3       0.77885    1.08359    0.72972   1.00
C3       0.77596    0.91680    0.77516   1.00
C3       0.72045    1.08415    0.76851   1.00
H1       0.70495    0.97192    0.70633   1.00
H1       0.80223    1.02685    0.71523   1.00
H1       0.70573    0.89968    0.70765   1.00
H1       0.80170    1.09895    0.71422   1.00
H1       0.79569    0.90179    0.79473   1.00
H1       0.69793    1.10043    0.78353   1.00
C5       0.68854    1.02239    0.79274   1.00
H1       0.79492    0.97401    0.79379   1.00
H2       0.66599    1.04354    0.80255   1.00
H2       0.67338    1.00103    0.77363   1.00
N1       0.70485    1.00292    0.82706   1.00
C6       0.72472    1.02012    0.85628   1.00
C6       0.70242    0.96460    0.83538   1.00
C6       0.73543    0.99243    0.88343   1.00
C6       0.72126    0.95711    0.87013   1.00
H3       0.73131    1.05099    0.85774   1.00
H3       0.68822    0.94309    0.81709   1.00
H3       0.75172    0.99741    0.90998   1.00
H3       0.72434    0.92903    0.88415   1.00
C4       0.52085    0.74990    0.75000   1.00
C4       0.47915    0.75010    0.75000   1.00
C3       0.54292    0.72577    0.77506   1.00
C3       0.45775    0.73042    0.72082   1.00
C3       0.54184    0.77438    0.72432   1.00
C3a      0.45737    0.76966    0.77968   1.00
C2       0.60517    0.75125    0.74916   1.00
C2       0.39483    0.74863    0.75054   1.00
C3       0.58434    0.72650    0.77460   1.00
C3       0.41641    0.72972    0.72115   1.00
C3       0.58320    0.77516    0.72404   1.00
C3       0.41585    0.76851    0.77955   1.00
H1       0.52808    0.70633    0.79505   1.00
H1       0.47315    0.71523    0.69777   1.00
H1       0.60032    0.70765    0.79427   1.00
H1       0.40105    0.71422    0.69830   1.00
H1       0.59821    0.79473    0.70431   1.00
H1       0.39957    0.78353    0.80207   1.00
C5       0.47761    0.79274    0.81146   1.00
H1       0.52599    0.79379    0.70508   1.00
H2       0.45646    0.80255    0.83401   1.00
H2       0.49897    0.77363    0.82662   1.00
N1       0.49708    0.82706    0.79515   1.00
C6       0.47988    0.85628    0.77528   1.00
C6       0.53540    0.83538    0.79758   1.00
C6       0.50757    0.88343    0.76457   1.00
C6       0.54289    0.87013    0.77874   1.00
H3       0.44901    0.85774    0.76869   1.00
H3       0.55691    0.81709    0.81178   1.00
H3       0.50259    0.90998    0.74828   1.00
H3       0.57097    0.88415    0.77566   1.00
C4       0.97915    0.74990    0.75000   1.00
C4       1.02085    0.75010    0.75000   1.00
C3       0.95708    0.72577    0.72494   1.00
C3       1.04225    0.73042    0.77918   1.00
C3       0.95816    0.77438    0.77568   1.00
C3a      1.04263    0.76966    0.72032   1.00
C2       0.89483    0.75125    0.75084   1.00
C2       1.10517    0.74863    0.74946   1.00
C3       0.91566    0.72650    0.72540   1.00
C3       1.08359    0.72972    0.77885   1.00
C3       0.91680    0.77516    0.77596   1.00
C3       1.08415    0.76851    0.72045   1.00
H1       0.97192    0.70633    0.70495   1.00
H1       1.02685    0.71523    0.80223   1.00
H1       0.89968    0.70765    0.70573   1.00
H1       1.09895    0.71422    0.80170   1.00
H1       0.90179    0.79473    0.79569   1.00
H1       1.10043    0.78353    0.69793   1.00
C5       1.02239    0.79274    0.68854   1.00
H1       0.97401    0.79379    0.79492   1.00
H2       1.04354    0.80255    0.66599   1.00
H2       1.00103    0.77363    0.67338   1.00
N1       1.00292    0.82706    0.70485   1.00
C6       1.02012    0.85628    0.72472   1.00
C6       0.96460    0.83538    0.70242   1.00
C6       0.99243    0.88343    0.73543   1.00
C6       0.95711    0.87013    0.72126   1.00
H3       1.05099    0.85774    0.73131   1.00
H3       0.94309    0.81709    0.68822   1.00
H3       0.99741    0.90998    0.75172   1.00
H3       0.92903    0.88415    0.72434   1.00
C4       0.75000    0.52085    0.74990   1.00
C4       0.75000    0.47915    0.75010   1.00
C3       0.77506    0.54292    0.72577   1.00
C3       0.72082    0.45775    0.73042   1.00
C3       0.72432    0.54184    0.77438   1.00
C3a      0.77968    0.45737    0.76966   1.00
C2       0.74916    0.60517    0.75125   1.00
C2       0.75054    0.39483    0.74863   1.00
C3       0.77460    0.58434    0.72650   1.00
C3       0.72115    0.41641    0.72972   1.00
C3       0.72404    0.58320    0.77516   1.00
C3       0.77955    0.41585    0.76851   1.00
H1       0.79505    0.52808    0.70633   1.00
H1       0.69777    0.47315    0.71523   1.00
H1       0.79427    0.60032    0.70765   1.00
H1       0.69830    0.40105    0.71422   1.00
H1       0.70431    0.59821    0.79473   1.00
H1       0.80207    0.39957    0.78353   1.00
C5       0.81146    0.47761    0.79274   1.00
H1       0.70508    0.52599    0.79379   1.00
H2       0.83401    0.45646    0.80255   1.00
H2       0.82662    0.49897    0.77363   1.00
N1       0.79515    0.49708    0.82706   1.00
C6       0.77528    0.47988    0.85628   1.00
C6       0.79758    0.53540    0.83538   1.00
C6       0.76457    0.50757    0.88343   1.00
C6       0.77874    0.54289    0.87013   1.00
H3       0.76869    0.44901    0.85774   1.00
H3       0.81178    0.55691    0.81709   1.00
H3       0.74828    0.50259    0.90998   1.00
H3       0.77566    0.57097    0.88415   1.00
C4       0.74990    0.75000    0.52085   1.00
C4       0.75010    0.75000    0.47915   1.00
C3       0.72577    0.77506    0.54292   1.00
C3       0.73042    0.72082    0.45775   1.00
C3       0.77438    0.72432    0.54184   1.00
C3a      0.76966    0.77968    0.45737   1.00
C2       0.75125    0.74916    0.60517   1.00
C2       0.74863    0.75054    0.39483   1.00
C3       0.72650    0.77460    0.58434   1.00
C3       0.72972    0.72115    0.41641   1.00
C3       0.77516    0.72404    0.58320   1.00
C3       0.76851    0.77955    0.41585   1.00
H1       0.70633    0.79505    0.52808   1.00
H1       0.71523    0.69777    0.47315   1.00
H1       0.70765    0.79427    0.60032   1.00
H1       0.71422    0.69830    0.40105   1.00
H1       0.79473    0.70431    0.59821   1.00
H1       0.78353    0.80207    0.39957   1.00
C5       0.79274    0.81146    0.47761   1.00
H1       0.79379    0.70508    0.52599   1.00
H2       0.80255    0.83401    0.45646   1.00
H2       0.77363    0.82662    0.49897   1.00
N1       0.82706    0.79515    0.49708   1.00
C6       0.85628    0.77528    0.47988   1.00
C6       0.83538    0.79758    0.53540   1.00
C6       0.88343    0.76457    0.50757   1.00
C6       0.87013    0.77874    0.54289   1.00
H3       0.85774    0.76869    0.44901   1.00
H3       0.81709    0.81178    0.55691   1.00
H3       0.90998    0.74828    0.50259   1.00
H3       0.88415    0.77566    0.57097   1.00
C4       0.24990    0.25000    0.97915   1.00
C4       0.25010    0.25000    1.02085   1.00
C3       0.22577    0.22494    0.95708   1.00
C3       0.23042    0.27918    1.04225   1.00
C3       0.27438    0.27568    0.95816   1.00
C3a      0.26966    0.22032    1.04263   1.00
C2       0.25125    0.25084    0.89483   1.00
C2       0.24863    0.24946    1.10517   1.00
C3       0.22650    0.22540    0.91566   1.00
C3       0.22972    0.27885    1.08359   1.00
C3       0.27516    0.27596    0.91680   1.00
C3       0.26851    0.22045    1.08415   1.00
H1       0.20633    0.20495    0.97192   1.00
H1       0.21523    0.30223    1.02685   1.00
H1       0.20765    0.20573    0.89968   1.00
H1       0.21422    0.30170    1.09895   1.00
H1       0.29473    0.29569    0.90179   1.00
H1       0.28353    0.19793    1.10043   1.00
C5       0.29274    0.18854    1.02239   1.00
H1       0.29379    0.29492    0.97401   1.00
H2       0.30255    0.16599    1.04354   1.00
H2       0.27363    0.17338    1.00103   1.00
N1       0.32706    0.20485    1.00292   1.00
C6       0.35628    0.22472    1.02012   1.00
C6       0.33538    0.20242    0.96460   1.00
C6       0.38343    0.23543    0.99243   1.00
C6       0.37013    0.22126    0.95711   1.00
H3       0.35774    0.23131    1.05099   1.00
H3       0.31709    0.18822    0.94309   1.00
H3       0.40998    0.25172    0.99741   1.00
H3       0.38415    0.22434    0.92903   1.00
C4       0.25000    0.47915    0.74990   1.00
C4       0.25000    0.52085    0.75010   1.00
C3       0.22494    0.45708    0.72577   1.00
C3       0.27918    0.54225    0.73042   1.00
C3       0.27568    0.45816    0.77438   1.00
C3a      0.22032    0.54263    0.76966   1.00
C2       0.25084    0.39483    0.75125   1.00
C2       0.24946    0.60517    0.74863   1.00
C3       0.22540    0.41566    0.72650   1.00
C3       0.27885    0.58359    0.72972   1.00
C3       0.27596    0.41680    0.77516   1.00
C3       0.22045    0.58415    0.76851   1.00
H1       0.20495    0.47192    0.70633   1.00
H1       0.30223    0.52685    0.71523   1.00
H1       0.20573    0.39968    0.70765   1.00
H1       0.30170    0.59895    0.71422   1.00
H1       0.29569    0.40179    0.79473   1.00
H1       0.19793    0.60043    0.78353   1.00
C5       0.18854    0.52239    0.79274   1.00
H1       0.29492    0.47401    0.79379   1.00
H2       0.16599    0.54354    0.80255   1.00
H2       0.17338    0.50103    0.77363   1.00
N1       0.20485    0.50292    0.82706   1.00
C6       0.22472    0.52012    0.85628   1.00
C6       0.20242    0.46460    0.83538   1.00
C6       0.23543    0.49243    0.88343   1.00
C6       0.22126    0.45711    0.87013   1.00
H3       0.23131    0.55099    0.85774   1.00
H3       0.18822    0.44309    0.81709   1.00
H3       0.25172    0.49741    0.90998   1.00
H3       0.22434    0.42903    0.88415   1.00
C4       0.02085    0.24990    0.75000   1.00
C4       -0.02085   0.25010    0.75000   1.00
C3       0.04292    0.22577    0.77506   1.00
C3       -0.04225   0.23042    0.72082   1.00
C3       0.04184    0.27438    0.72432   1.00
C3a      -0.04263   0.26966    0.77968   1.00
C2       0.10517    0.25125    0.74916   1.00
C2       -0.10517   0.24863    0.75054   1.00
C3       0.08434    0.22650    0.77460   1.00
C3       -0.08359   0.22972    0.72115   1.00
C3       0.08320    0.27516    0.72404   1.00
C3       -0.08415   0.26851    0.77955   1.00
H1       0.02808    0.20633    0.79505   1.00
H1       -0.02685   0.21523    0.69777   1.00
H1       0.10032    0.20765    0.79427   1.00
H1       -0.09895   0.21422    0.69830   1.00
H1       0.09821    0.29473    0.70431   1.00
H1       -0.10043   0.28353    0.80207   1.00
C5       -0.02239   0.29274    0.81146   1.00
H1       0.02599    0.29379    0.70508   1.00
H2       -0.04354   0.30255    0.83401   1.00
H2       -0.00103   0.27363    0.82662   1.00
N1       -0.00292   0.32706    0.79515   1.00
C6       -0.02012   0.35628    0.77528   1.00
C6       0.03540    0.33538    0.79758   1.00
C6       0.00757    0.38343    0.76457   1.00
C6       0.04289    0.37013    0.77874   1.00
H3       -0.05099   0.35774    0.76869   1.00
H3       0.05691    0.31709    0.81178   1.00
H3       0.00259    0.40998    0.74828   1.00
H3       0.07097    0.38415    0.77566   1.00
C4       0.47915    0.24990    0.75000   1.00
C4       0.52085    0.25010    0.75000   1.00
C3       0.45708    0.22577    0.72494   1.00
C3       0.54225    0.23042    0.77918   1.00
C3       0.45816    0.27438    0.77568   1.00
C3a      0.54263    0.26966    0.72032   1.00
C2       0.39483    0.25125    0.75084   1.00
C2       0.60517    0.24863    0.74946   1.00
C3       0.41566    0.22650    0.72540   1.00
C3       0.58359    0.22972    0.77885   1.00
C3       0.41680    0.27516    0.77596   1.00
C3       0.58415    0.26851    0.72045   1.00
H1       0.47192    0.20633    0.70495   1.00
H1       0.52685    0.21523    0.80223   1.00
H1       0.39968    0.20765    0.70573   1.00
H1       0.59895    0.21422    0.80170   1.00
H1       0.40179    0.29473    0.79569   1.00
H1       0.60043    0.28353    0.69793   1.00
C5       0.52239    0.29274    0.68854   1.00
H1       0.47401    0.29379    0.79492   1.00
H2       0.54354    0.30255    0.66599   1.00
H2       0.50103    0.27363    0.67338   1.00
N1       0.50292    0.32706    0.70485   1.00
C6       0.52012    0.35628    0.72472   1.00
C6       0.46460    0.33538    0.70242   1.00
C6       0.49243    0.38343    0.73543   1.00
C6       0.45711    0.37013    0.72126   1.00
H3       0.55099    0.35774    0.73131   1.00
H3       0.44309    0.31709    0.68822   1.00
H3       0.49741    0.40998    0.75172   1.00
H3       0.42903    0.38415    0.72434   1.00
C4       0.25000    0.02085    0.74990   1.00
C4       0.25000    -0.02085   0.75010   1.00
C3       0.27506    0.04292    0.72577   1.00
C3       0.22082    -0.04225   0.73042   1.00
C3       0.22432    0.04184    0.77438   1.00
C3a      0.27968    -0.04263   0.76966   1.00
C2       0.24916    0.10517    0.75125   1.00
C2       0.25054    -0.10517   0.74863   1.00
C3       0.27460    0.08434    0.72650   1.00
C3       0.22115    -0.08359   0.72972   1.00
C3       0.22404    0.08320    0.77516   1.00
C3       0.27955    -0.08415   0.76851   1.00
H1       0.29505    0.02808    0.70633   1.00
H1       0.19777    -0.02685   0.71523   1.00
H1       0.29427    0.10032    0.70765   1.00
H1       0.19830    -0.09895   0.71422   1.00
H1       0.20431    0.09821    0.79473   1.00
H1       0.30207    -0.10043   0.78353   1.00
C5       0.31146    -0.02239   0.79274   1.00
H1       0.20508    0.02599    0.79379   1.00
H2       0.33401    -0.04354   0.80255   1.00
H2       0.32662    -0.00103   0.77363   1.00
N1       0.29515    -0.00292   0.82706   1.00
C6       0.27528    -0.02012   0.85628   1.00
C6       0.29758    0.03540    0.83538   1.00
C6       0.26457    0.00757    0.88343   1.00
C6       0.27874    0.04289    0.87013   1.00
H3       0.26869    -0.05099   0.85774   1.00
H3       0.31178    0.05691    0.81709   1.00
H3       0.24828    0.00259    0.90998   1.00
H3       0.27566    0.07097    0.88415   1.00
C4       0.24990    0.25000    0.52085   1.00
C4       0.25010    0.25000    0.47915   1.00
C3       0.22577    0.27506    0.54292   1.00
C3       0.23042    0.22082    0.45775   1.00
C3       0.27438    0.22432    0.54184   1.00
C3a      0.26966    0.27968    0.45737   1.00
C2       0.25125    0.24916    0.60517   1.00
C2       0.24863    0.25054    0.39483   1.00
C3       0.22650    0.27460    0.58434   1.00
C3       0.22972    0.22115    0.41641   1.00
C3       0.27516    0.22404    0.58320   1.00
C3       0.26851    0.27955    0.41585   1.00
H1       0.20633    0.29505    0.52808   1.00
H1       0.21523    0.19777    0.47315   1.00
H1       0.20765    0.29427    0.60032   1.00
H1       0.21422    0.19830    0.40105   1.00
H1       0.29473    0.20431    0.59821   1.00
H1       0.28353    0.30207    0.39957   1.00
C5       0.29274    0.31146    0.47761   1.00
H1       0.29379    0.20508    0.52599   1.00
H2       0.30255    0.33401    0.45646   1.00
H2       0.27363    0.32662    0.49897   1.00
N1       0.32706    0.29515    0.49708   1.00
C6       0.35628    0.27528    0.47988   1.00
C6       0.33538    0.29758    0.53540   1.00
C6       0.38343    0.26457    0.50757   1.00
C6       0.37013    0.27874    0.54289   1.00
H3       0.35774    0.26869    0.44901   1.00
H3       0.31709    0.31178    0.55691   1.00
H3       0.40998    0.24828    0.50259   1.00
H3       0.38415    0.27566    0.57097   1.00
C4       0.24990    0.75000    0.47915   1.00
C4       0.25010    0.75000    0.52085   1.00
C3       0.22577    0.72494    0.45708   1.00
C3       0.23042    0.77918    0.54225   1.00
C3       0.27438    0.77568    0.45816   1.00
C3a      0.26966    0.72032    0.54263   1.00
C2       0.25125    0.75084    0.39483   1.00
C2       0.24863    0.74946    0.60517   1.00
C3       0.22650    0.72540    0.41566   1.00
C3       0.22972    0.77885    0.58359   1.00
C3       0.27516    0.77596    0.41680   1.00
C3       0.26851    0.72045    0.58415   1.00
H1       0.20633    0.70495    0.47192   1.00
H1       0.21523    0.80223    0.52685   1.00
H1       0.20765    0.70573    0.39968   1.00
H1       0.21422    0.80170    0.59895   1.00
H1       0.29473    0.79569    0.40179   1.00
H1       0.28353    0.69793    0.60043   1.00
C5       0.29274    0.68854    0.52239   1.00
H1       0.29379    0.79492    0.47401   1.00
H2       0.30255    0.66599    0.54354   1.00
H2       0.27363    0.67338    0.50103   1.00
N1       0.32706    0.70485    0.50292   1.00
C6       0.35628    0.72472    0.52012   1.00
C6       0.33538    0.70242    0.46460   1.00
C6       0.38343    0.73543    0.49243   1.00
C6       0.37013    0.72126    0.45711   1.00
H3       0.35774    0.73131    0.55099   1.00
H3       0.31709    0.68822    0.44309   1.00
H3       0.40998    0.75172    0.49741   1.00
H3       0.38415    0.72434    0.42903   1.00
C4       0.25000    0.97915    0.24990   1.00
C4       0.25000    1.02085    0.25010   1.00
C3       0.22494    0.95708    0.22577   1.00
C3       0.27918    1.04225    0.23042   1.00
C3       0.27568    0.95816    0.27438   1.00
C3a      0.22032    1.04263    0.26966   1.00
C2       0.25084    0.89483    0.25125   1.00
C2       0.24946    1.10517    0.24863   1.00
C3       0.22540    0.91566    0.22650   1.00
C3       0.27885    1.08359    0.22972   1.00
C3       0.27596    0.91680    0.27516   1.00
C3       0.22045    1.08415    0.26851   1.00
H1       0.20495    0.97192    0.20633   1.00
H1       0.30223    1.02685    0.21523   1.00
H1       0.20573    0.89968    0.20765   1.00
H1       0.30170    1.09895    0.21422   1.00
H1       0.29569    0.90179    0.29473   1.00
H1       0.19793    1.10043    0.28353   1.00
C5       0.18854    1.02239    0.29274   1.00
H1       0.29492    0.97401    0.29379   1.00
H2       0.16599    1.04354    0.30255   1.00
H2       0.17338    1.00103    0.27363   1.00
N1       0.20485    1.00292    0.32706   1.00
C6       0.22472    1.02012    0.35628   1.00
C6       0.20242    0.96460    0.33538   1.00
C6       0.23543    0.99243    0.38343   1.00
C6       0.22126    0.95711    0.37013   1.00
H3       0.23131    1.05099    0.35774   1.00
H3       0.18822    0.94309    0.31709   1.00
H3       0.25172    0.99741    0.40998   1.00
H3       0.22434    0.92903    0.38415   1.00
C4       0.02085    0.74990    0.25000   1.00
C4       -0.02085   0.75010    0.25000   1.00
C3       0.04292    0.72577    0.27506   1.00
C3       -0.04225   0.73042    0.22082   1.00
C3       0.04184    0.77438    0.22432   1.00
C3a      -0.04263   0.76966    0.27968   1.00
C2       0.10517    0.75125    0.24916   1.00
C2       -0.10517   0.74863    0.25054   1.00
C3       0.08434    0.72650    0.27460   1.00
C3       -0.08359   0.72972    0.22115   1.00
C3       0.08320    0.77516    0.22404   1.00
C3       -0.08415   0.76851    0.27955   1.00
H1       0.02808    0.70633    0.29505   1.00
H1       -0.02685   0.71523    0.19777   1.00
H1       0.10032    0.70765    0.29427   1.00
H1       -0.09895   0.71422    0.19830   1.00
H1       0.09821    0.79473    0.20431   1.00
H1       -0.10043   0.78353    0.30207   1.00
C5       -0.02239   0.79274    0.31146   1.00
H1       0.02599    0.79379    0.20508   1.00
H2       -0.04354   0.80255    0.33401   1.00
H2       -0.00103   0.77363    0.32662   1.00
N1       -0.00292   0.82706    0.29515   1.00
C6       -0.02012   0.85628    0.27528   1.00
C6       0.03540    0.83538    0.29758   1.00
C6       0.00757    0.88343    0.26457   1.00
C6       0.04289    0.87013    0.27874   1.00
H3       -0.05099   0.85774    0.26869   1.00
H3       0.05691    0.81709    0.31178   1.00
H3       0.00259    0.90998    0.24828   1.00
H3       0.07097    0.88415    0.27566   1.00
C4       0.47915    0.74990    0.25000   1.00
C4       0.52085    0.75010    0.25000   1.00
C3       0.45708    0.72577    0.22494   1.00
C3       0.54225    0.73042    0.27918   1.00
C3       0.45816    0.77438    0.27568   1.00
C3a      0.54263    0.76966    0.22032   1.00
C2       0.39483    0.75125    0.25084   1.00
C2       0.60517    0.74863    0.24946   1.00
C3       0.41566    0.72650    0.22540   1.00
C3       0.58359    0.72972    0.27885   1.00
C3       0.41680    0.77516    0.27596   1.00
C3       0.58415    0.76851    0.22045   1.00
H1       0.47192    0.70633    0.20495   1.00
H1       0.52685    0.71523    0.30223   1.00
H1       0.39968    0.70765    0.20573   1.00
H1       0.59895    0.71422    0.30170   1.00
H1       0.40179    0.79473    0.29569   1.00
H1       0.60043    0.78353    0.19793   1.00
C5       0.52239    0.79274    0.18854   1.00
H1       0.47401    0.79379    0.29492   1.00
H2       0.54354    0.80255    0.16599   1.00
H2       0.50103    0.77363    0.17338   1.00
N1       0.50292    0.82706    0.20485   1.00
C6       0.52012    0.85628    0.22472   1.00
C6       0.46460    0.83538    0.20242   1.00
C6       0.49243    0.88343    0.23543   1.00
C6       0.45711    0.87013    0.22126   1.00
H3       0.55099    0.85774    0.23131   1.00
H3       0.44309    0.81709    0.18822   1.00
H3       0.49741    0.90998    0.25172   1.00
H3       0.42903    0.88415    0.22434   1.00
C4       0.25000    0.52085    0.24990   1.00
C4       0.25000    0.47915    0.25010   1.00
C3       0.27506    0.54292    0.22577   1.00
C3       0.22082    0.45775    0.23042   1.00
C3       0.22432    0.54184    0.27438   1.00
C3a      0.27968    0.45737    0.26966   1.00
C2       0.24916    0.60517    0.25125   1.00
C2       0.25054    0.39483    0.24863   1.00
C3       0.27460    0.58434    0.22650   1.00
C3       0.22115    0.41641    0.22972   1.00
C3       0.22404    0.58320    0.27516   1.00
C3       0.27955    0.41585    0.26851   1.00
H1       0.29505    0.52808    0.20633   1.00
H1       0.19777    0.47315    0.21523   1.00
H1       0.29427    0.60032    0.20765   1.00
H1       0.19830    0.40105    0.21422   1.00
H1       0.20431    0.59821    0.29473   1.00
H1       0.30207    0.39957    0.28353   1.00
C5       0.31146    0.47761    0.29274   1.00
H1       0.20508    0.52599    0.29379   1.00
H2       0.33401    0.45646    0.30255   1.00
H2       0.32662    0.49897    0.27363   1.00
N1       0.29515    0.49708    0.32706   1.00
C6       0.27528    0.47988    0.35628   1.00
C6       0.29758    0.53540    0.33538   1.00
C6       0.26457    0.50757    0.38343   1.00
C6       0.27874    0.54289    0.37013   1.00
H3       0.26869    0.44901    0.35774   1.00
H3       0.31178    0.55691    0.31709   1.00
H3       0.24828    0.50259    0.40998   1.00
H3       0.27566    0.57097    0.38415   1.00
C4       0.24990    0.75000    0.02085   1.00
C4       0.25010    0.75000    -0.02085   1.00
C3       0.22577    0.77506    0.04292   1.00
C3       0.23042    0.72082    -0.04225   1.00
C3       0.27438    0.72432    0.04184   1.00
C3a      0.26966    0.77968    -0.04263   1.00
C2       0.25125    0.74916    0.10517   1.00
C2       0.24863    0.75054    -0.10517   1.00
C3       0.22650    0.77460    0.08434   1.00
C3       0.22972    0.72115    -0.08359   1.00
C3       0.27516    0.72404    0.08320   1.00
C3       0.26851    0.77955    -0.08415   1.00
H1       0.20633    0.79505    0.02808   1.00
H1       0.21523    0.69777    -0.02685   1.00
H1       0.20765    0.79427    0.10032   1.00
H1       0.21422    0.69830    -0.09895   1.00
H1       0.29473    0.70431    0.09821   1.00
H1       0.28353    0.80207    -0.10043   1.00
C5       0.29274    0.81146    -0.02239   1.00
H1       0.29379    0.70508    0.02599   1.00
H2       0.30255    0.83401    -0.04354   1.00
H2       0.27363    0.82662    -0.00103   1.00
N1       0.32706    0.79515    -0.00292   1.00
C6       0.35628    0.77528    -0.02012   1.00
C6       0.33538    0.79758    0.03540   1.00
C6       0.38343    0.76457    0.00757   1.00
C6       0.37013    0.77874    0.04289   1.00
H3       0.35774    0.76869    -0.05099   1.00
H3       0.31709    0.81178    0.05691   1.00
H3       0.40998    0.74828    0.00259   1.00
H3       0.38415    0.77566    0.07097   1.00
C4       0.74990    0.25000    0.47915   1.00
C4       0.75010    0.25000    0.52085   1.00
C3       0.72577    0.22494    0.45708   1.00
C3       0.73042    0.27918    0.54225   1.00
C3       0.77438    0.27568    0.45816   1.00
C3a      0.76966    0.22032    0.54263   1.00
C2       0.75125    0.25084    0.39483   1.00
C2       0.74863    0.24946    0.60517   1.00
C3       0.72650    0.22540    0.41566   1.00
C3       0.72972    0.27885    0.58359   1.00
C3       0.77516    0.27596    0.41680   1.00
C3       0.76851    0.22045    0.58415   1.00
H1       0.70633    0.20495    0.47192   1.00
H1       0.71523    0.30223    0.52685   1.00
H1       0.70765    0.20573    0.39968   1.00
H1       0.71422    0.30170    0.59895   1.00
H1       0.79473    0.29569    0.40179   1.00
H1       0.78353    0.19793    0.60043   1.00
C5       0.79274    0.18854    0.52239   1.00
H1       0.79379    0.29492    0.47401   1.00
H2       0.80255    0.16599    0.54354   1.00
H2       0.77363    0.17338    0.50103   1.00
N1       0.82706    0.20485    0.50292   1.00
C6       0.85628    0.22472    0.52012   1.00
C6       0.83538    0.20242    0.46460   1.00
C6       0.88343    0.23543    0.49243   1.00
C6       0.87013    0.22126    0.45711   1.00
H3       0.85774    0.23131    0.55099   1.00
H3       0.81709    0.18822    0.44309   1.00
H3       0.90998    0.25172    0.49741   1.00
H3       0.88415    0.22434    0.42903   1.00
C4       0.75000    0.47915    0.24990   1.00
C4       0.75000    0.52085    0.25010   1.00
C3       0.72494    0.45708    0.22577   1.00
C3       0.77918    0.54225    0.23042   1.00
C3       0.77568    0.45816    0.27438   1.00
C3a      0.72032    0.54263    0.26966   1.00
C2       0.75084    0.39483    0.25125   1.00
C2       0.74946    0.60517    0.24863   1.00
C3       0.72540    0.41566    0.22650   1.00
C3       0.77885    0.58359    0.22972   1.00
C3       0.77596    0.41680    0.27516   1.00
C3       0.72045    0.58415    0.26851   1.00
H1       0.70495    0.47192    0.20633   1.00
H1       0.80223    0.52685    0.21523   1.00
H1       0.70573    0.39968    0.20765   1.00
H1       0.80170    0.59895    0.21422   1.00
H1       0.79569    0.40179    0.29473   1.00
H1       0.69793    0.60043    0.28353   1.00
C5       0.68854    0.52239    0.29274   1.00
H1       0.79492    0.47401    0.29379   1.00
H2       0.66599    0.54354    0.30255   1.00
H2       0.67338    0.50103    0.27363   1.00
N1       0.70485    0.50292    0.32706   1.00
C6       0.72472    0.52012    0.35628   1.00
C6       0.70242    0.46460    0.33538   1.00
C6       0.73543    0.49243    0.38343   1.00
C6       0.72126    0.45711    0.37013   1.00
H3       0.73131    0.55099    0.35774   1.00
H3       0.68822    0.44309    0.31709   1.00
H3       0.75172    0.49741    0.40998   1.00
H3       0.72434    0.42903    0.38415   1.00
C4       0.52085    0.24990    0.25000   1.00
C4       0.47915    0.25010    0.25000   1.00
C3       0.54292    0.22577    0.27506   1.00
C3       0.45775    0.23042    0.22082   1.00
C3       0.54184    0.27438    0.22432   1.00
C3a      0.45737    0.26966    0.27968   1.00
C2       0.60517    0.25125    0.24916   1.00
C2       0.39483    0.24863    0.25054   1.00
C3       0.58434    0.22650    0.27460   1.00
C3       0.41641    0.22972    0.22115   1.00
C3       0.58320    0.27516    0.22404   1.00
C3       0.41585    0.26851    0.27955   1.00
H1       0.52808    0.20633    0.29505   1.00
H1       0.47315    0.21523    0.19777   1.00
H1       0.60032    0.20765    0.29427   1.00
H1       0.40105    0.21422    0.19830   1.00
H1       0.59821    0.29473    0.20431   1.00
H1       0.39957    0.28353    0.30207   1.00
C5       0.47761    0.29274    0.31146   1.00
H1       0.52599    0.29379    0.20508   1.00
H2       0.45646    0.30255    0.33401   1.00
H2       0.49897    0.27363    0.32662   1.00
N1       0.49708    0.32706    0.29515   1.00
C6       0.47988    0.35628    0.27528   1.00
C6       0.53540    0.33538    0.29758   1.00
C6       0.50757    0.38343    0.26457   1.00
C6       0.54289    0.37013    0.27874   1.00
H3       0.44901    0.35774    0.26869   1.00
H3       0.55691    0.31709    0.31178   1.00
H3       0.50259    0.40998    0.24828   1.00
H3       0.57097    0.38415    0.27566   1.00
C4       0.97915    0.24990    0.25000   1.00
C4       1.02085    0.25010    0.25000   1.00
C3       0.95708    0.22577    0.22494   1.00
C3       1.04225    0.23042    0.27918   1.00
C3       0.95816    0.27438    0.27568   1.00
C3a      1.04263    0.26966    0.22032   1.00
C2       0.89483    0.25125    0.25084   1.00
C2       1.10517    0.24863    0.24946   1.00
C3       0.91566    0.22650    0.22540   1.00
C3       1.08359    0.22972    0.27885   1.00
C3       0.91680    0.27516    0.27596   1.00
C3       1.08415    0.26851    0.22045   1.00
H1       0.97192    0.20633    0.20495   1.00
H1       1.02685    0.21523    0.30223   1.00
H1       0.89968    0.20765    0.20573   1.00
H1       1.09895    0.21422    0.30170   1.00
H1       0.90179    0.29473    0.29569   1.00
H1       1.10043    0.28353    0.19793   1.00
C5       1.02239    0.29274    0.18854   1.00
H1       0.97401    0.29379    0.29492   1.00
H2       1.04354    0.30255    0.16599   1.00
H2       1.00103    0.27363    0.17338   1.00
N1       1.00292    0.32706    0.20485   1.00
C6       1.02012    0.35628    0.22472   1.00
C6       0.96460    0.33538    0.20242   1.00
C6       0.99243    0.38343    0.23543   1.00
C6       0.95711    0.37013    0.22126   1.00
H3       1.05099    0.35774    0.23131   1.00
H3       0.94309    0.31709    0.18822   1.00
H3       0.99741    0.40998    0.25172   1.00
H3       0.92903    0.38415    0.22434   1.00
C4       0.75000    0.02085    0.24990   1.00
C4       0.75000    -0.02085   0.25010   1.00
C3       0.77506    0.04292    0.22577   1.00
C3       0.72082    -0.04225   0.23042   1.00
C3       0.72432    0.04184    0.27438   1.00
C3a      0.77968    -0.04263   0.26966   1.00
C2       0.74916    0.10517    0.25125   1.00
C2       0.75054    -0.10517   0.24863   1.00
C3       0.77460    0.08434    0.22650   1.00
C3       0.72115    -0.08359   0.22972   1.00
C3       0.72404    0.08320    0.27516   1.00
C3       0.77955    -0.08415   0.26851   1.00
H1       0.79505    0.02808    0.20633   1.00
H1       0.69777    -0.02685   0.21523   1.00
H1       0.79427    0.10032    0.20765   1.00
H1       0.69830    -0.09895   0.21422   1.00
H1       0.70431    0.09821    0.29473   1.00
H1       0.80207    -0.10043   0.28353   1.00
C5       0.81146    -0.02239   0.29274   1.00
H1       0.70508    0.02599    0.29379   1.00
H2       0.83401    -0.04354   0.30255   1.00
H2       0.82662    -0.00103   0.27363   1.00
N1       0.79515    -0.00292   0.32706   1.00
C6       0.77528    -0.02012   0.35628   1.00
C6       0.79758    0.03540    0.33538   1.00
C6       0.76457    0.00757    0.38343   1.00
C6       0.77874    0.04289    0.37013   1.00
H3       0.76869    -0.05099   0.35774   1.00
H3       0.81178    0.05691    0.31709   1.00
H3       0.74828    0.00259    0.40998   1.00
H3       0.77566    0.07097    0.38415   1.00
C4       0.74990    0.25000    0.02085   1.00
C4       0.75010    0.25000    -0.02085   1.00
C3       0.72577    0.27506    0.04292   1.00
C3       0.73042    0.22082    -0.04225   1.00
C3       0.77438    0.22432    0.04184   1.00
C3a      0.76966    0.27968    -0.04263   1.00
C2       0.75125    0.24916    0.10517   1.00
C2       0.74863    0.25054    -0.10517   1.00
C3       0.72650    0.27460    0.08434   1.00
C3       0.72972    0.22115    -0.08359   1.00
C3       0.77516    0.22404    0.08320   1.00
C3       0.76851    0.27955    -0.08415   1.00
H1       0.70633    0.29505    0.02808   1.00
H1       0.71523    0.19777    -0.02685   1.00
H1       0.70765    0.29427    0.10032   1.00
H1       0.71422    0.19830    -0.09895   1.00
H1       0.79473    0.20431    0.09821   1.00
H1       0.78353    0.30207    -0.10043   1.00
C5       0.79274    0.31146    -0.02239   1.00
H1       0.79379    0.20508    0.02599   1.00
H2       0.80255    0.33401    -0.04354   1.00
H2       0.77363    0.32662    -0.00103   1.00
N1       0.82706    0.29515    -0.00292   1.00
C6       0.85628    0.27528    -0.02012   1.00
C6       0.83538    0.29758    0.03540   1.00
C6       0.88343    0.26457    0.00757   1.00
C6       0.87013    0.27874    0.04289   1.00
H3       0.85774    0.26869    -0.05099   1.00
H3       0.81709    0.31178    0.05691   1.00
H3       0.90998    0.24828    0.00259   1.00
H3       0.88415    0.27566    0.07097   1.00
C4       0.91490    0.91500    1.14415   1.00
C4       0.91510    0.91500    1.18585   1.00
C3       0.89077    0.88994    1.12208   1.00
C3       0.89542    0.94418    1.20725   1.00
C3       0.93938    0.94068    1.12316   1.00
C3a      0.93466    0.88532    1.20763   1.00
C2       0.91625    0.91584    1.05983   1.00
C2       0.91363    0.91446    1.27017   1.00
C3       0.89150    0.89040    1.08066   1.00
C3       0.89472    0.94385    1.24859   1.00
C3       0.94016    0.94096    1.08180   1.00
C3       0.93351    0.88545    1.24915   1.00
H1       0.87133    0.86995    1.13692   1.00
H1       0.88023    0.96723    1.19185   1.00
H1       0.87265    0.87073    1.06468   1.00
H1       0.87922    0.96670    1.26395   1.00
H1       0.95973    0.96069    1.06679   1.00
H1       0.94853    0.86293    1.26543   1.00
C5       0.95774    0.85354    1.18739   1.00
H1       0.95879    0.95992    1.13901   1.00
H2       0.96755    0.83099    1.20854   1.00
H2       0.93863    0.83838    1.16603   1.00
N1       0.99206    0.86985    1.16792   1.00
C6       1.02128    0.88972    1.18512   1.00
C6       1.00038    0.86742    1.12960   1.00
C6       1.04843    0.90043    1.15743   1.00
C6       1.03513    0.88626    1.12211   1.00
H3       1.02274    0.89631    1.21599   1.00
H3       0.98209    0.85322    1.10809   1.00
H3       1.07498    0.91672    1.16241   1.00
H3       1.04915    0.88934    1.09403   1.00
C4       0.91500    1.14415    0.91490   1.00
C4       0.91500    1.18585    0.91510   1.00
C3       0.88994    1.12208    0.89077   1.00
C3       0.94418    1.20725    0.89542   1.00
C3       0.94068    1.12316    0.93938   1.00
C3a      0.88532    1.20763    0.93466   1.00
C2       0.91584    1.05983    0.91625   1.00
C2       0.91446    1.27017    0.91363   1.00
C3       0.89040    1.08066    0.89150   1.00
C3       0.94385    1.24859    0.89472   1.00
C3       0.94096    1.08180    0.94016   1.00
C3       0.88545    1.24915    0.93351   1.00
H1       0.86995    1.13692    0.87133   1.00
H1       0.96723    1.19185    0.88023   1.00
H1       0.87073    1.06468    0.87265   1.00
H1       0.96670    1.26395    0.87922   1.00
H1       0.96069    1.06679    0.95973   1.00
H1       0.86293    1.26543    0.94853   1.00
C5       0.85354    1.18739    0.95774   1.00
H1       0.95992    1.13901    0.95879   1.00
H2       0.83099    1.20854    0.96755   1.00
H2       0.83838    1.16603    0.93863   1.00
N1       0.86985    1.16792    0.99206   1.00
C6       0.88972    1.18512    1.02128   1.00
C6       0.86742    1.12960    1.00038   1.00
C6       0.90043    1.15743    1.04843   1.00
C6       0.88626    1.12211    1.03513   1.00
H3       0.89631    1.21599    1.02274   1.00
H3       0.85322    1.10809    0.98209   1.00
H3       0.91672    1.16241    1.07498   1.00
H3       0.88934    1.09403    1.04915   1.00
C4       0.68585    0.91490    0.91500   1.00
C4       0.64415    0.91510    0.91500   1.00
C3       0.70792    0.89077    0.94006   1.00
C3       0.62275    0.89542    0.88582   1.00
C3       0.70684    0.93938    0.88932   1.00
C3a      0.62237    0.93466    0.94468   1.00
C2       0.77017    0.91625    0.91416   1.00
C2       0.55983    0.91363    0.91554   1.00
C3       0.74934    0.89150    0.93960   1.00
C3       0.58141    0.89472    0.88615   1.00
C3       0.74820    0.94016    0.88904   1.00
C3       0.58085    0.93351    0.94455   1.00
H1       0.69308    0.87133    0.96005   1.00
H1       0.63815    0.88023    0.86277   1.00
H1       0.76532    0.87265    0.95927   1.00
H1       0.56605    0.87922    0.86330   1.00
H1       0.76321    0.95973    0.86931   1.00
H1       0.56457    0.94853    0.96707   1.00
C5       0.64261    0.95774    0.97646   1.00
H1       0.69099    0.95879    0.87008   1.00
H2       0.62146    0.96755    0.99901   1.00
H2       0.66397    0.93863    0.99162   1.00
N1       0.66208    0.99206    0.96015   1.00
C6       0.64488    1.02128    0.94028   1.00
C6       0.70040    1.00038    0.96258   1.00
C6       0.67257    1.04843    0.92957   1.00
C6       0.70789    1.03513    0.94374   1.00
H3       0.61401    1.02274    0.93369   1.00
H3       0.72191    0.98209    0.97678   1.00
H3       0.66759    1.07498    0.91328   1.00
H3       0.73597    1.04915    0.94066   1.00
C4       1.14415    0.91490    0.91500   1.00
C4       1.18585    0.91510    0.91500   1.00
C3       1.12208    0.89077    0.88994   1.00
C3       1.20725    0.89542    0.94418   1.00
C3       1.12316    0.93938    0.94068   1.00
C3a      1.20763    0.93466    0.88532   1.00
C2       1.05983    0.91625    0.91584   1.00
C2       1.27017    0.91363    0.91446   1.00
C3       1.08066    0.89150    0.89040   1.00
C3       1.24859    0.89472    0.94385   1.00
C3       1.08180    0.94016    0.94096   1.00
C3       1.24915    0.93351    0.88545   1.00
H1       1.13692    0.87133    0.86995   1.00
H1       1.19185    0.88023    0.96723   1.00
H1       1.06468    0.87265    0.87073   1.00
H1       1.26395    0.87922    0.96670   1.00
H1       1.06679    0.95973    0.96069   1.00
H1       1.26543    0.94853    0.86293   1.00
C5       1.18739    0.95774    0.85354   1.00
H1       1.13901    0.95879    0.95992   1.00
H2       1.20854    0.96755    0.83099   1.00
H2       1.16603    0.93863    0.83838   1.00
N1       1.16792    0.99206    0.86985   1.00
C6       1.18512    1.02128    0.88972   1.00
C6       1.12960    1.00038    0.86742   1.00
C6       1.15743    1.04843    0.90043   1.00
C6       1.12211    1.03513    0.88626   1.00
H3       1.21599    1.02274    0.89631   1.00
H3       1.10809    0.98209    0.85322   1.00
H3       1.16241    1.07498    0.91672   1.00
H3       1.09403    1.04915    0.88934   1.00
C4       0.91500    0.68585    0.91490   1.00
C4       0.91500    0.64415    0.91510   1.00
C3       0.94006    0.70792    0.89077   1.00
C3       0.88582    0.62275    0.89542   1.00
C3       0.88932    0.70684    0.93938   1.00
C3a      0.94468    0.62237    0.93466   1.00
C2       0.91416    0.77017    0.91625   1.00
C2       0.91554    0.55983    0.91363   1.00
C3       0.93960    0.74934    0.89150   1.00
C3       0.88615    0.58141    0.89472   1.00
C3       0.88904    0.74820    0.94016   1.00
C3       0.94455    0.58085    0.93351   1.00
H1       0.96005    0.69308    0.87133   1.00
H1       0.86277    0.63815    0.88023   1.00
H1       0.95927    0.76532    0.87265   1.00
H1       0.86330    0.56605    0.87922   1.00
H1       0.86931    0.76321    0.95973   1.00
H1       0.96707    0.56457    0.94853   1.00
C5       0.97646    0.64261    0.95774   1.00
H1       0.87008    0.69099    0.95879   1.00
H2       0.99901    0.62146    0.96755   1.00
H2       0.99162    0.66397    0.93863   1.00
N1       0.96015    0.66208    0.99206   1.00
C6       0.94028    0.64488    1.02128   1.00
C6       0.96258    0.70040    1.00038   1.00
C6       0.92957    0.67257    1.04843   1.00
C6       0.94374    0.70789    1.03513   1.00
H3       0.93369    0.61401    1.02274   1.00
H3       0.97678    0.72191    0.98209   1.00
H3       0.91328    0.66759    1.07498   1.00
H3       0.94066    0.73597    1.04915   1.00
C4       0.91490    0.91500    0.68585   1.00
C4       0.91510    0.91500    0.64415   1.00
C3       0.89077    0.94006    0.70792   1.00
C3       0.89542    0.88582    0.62275   1.00
C3       0.93938    0.88932    0.70684   1.00
C3a      0.93466    0.94468    0.62237   1.00
C2       0.91625    0.91416    0.77017   1.00
C2       0.91363    0.91554    0.55983   1.00
C3       0.89150    0.93960    0.74934   1.00
C3       0.89472    0.88615    0.58141   1.00
C3       0.94016    0.88904    0.74820   1.00
C3       0.93351    0.94455    0.58085   1.00
H1       0.87133    0.96005    0.69308   1.00
H1       0.88023    0.86277    0.63815   1.00
H1       0.87265    0.95927    0.76532   1.00
H1       0.87922    0.86330    0.56605   1.00
H1       0.95973    0.86931    0.76321   1.00
H1       0.94853    0.96707    0.56457   1.00
C5       0.95774    0.97646    0.64261   1.00
H1       0.95879    0.87008    0.69099   1.00
H2       0.96755    0.99901    0.62146   1.00
H2       0.93863    0.99162    0.66397   1.00
N1       0.99206    0.96015    0.66208   1.00
C6       1.02128    0.94028    0.64488   1.00
C6       1.00038    0.96258    0.70040   1.00
C6       1.04843    0.92957    0.67257   1.00
C6       1.03513    0.94374    0.70789   1.00
H3       1.02274    0.93369    0.61401   1.00
H3       0.98209    0.97678    0.72191   1.00
H3       1.07498    0.91328    0.66759   1.00
H3       1.04915    0.94066    0.73597   1.00
C4       0.41490    0.41500    1.14415   1.00
C4       0.41510    0.41500    1.18585   1.00
C3       0.39077    0.38994    1.12208   1.00
C3       0.39542    0.44418    1.20725   1.00
C3       0.43938    0.44068    1.12316   1.00
C3a      0.43466    0.38532    1.20763   1.00
C2       0.41625    0.41584    1.05983   1.00
C2       0.41363    0.41446    1.27017   1.00
C3       0.39150    0.39040    1.08066   1.00
C3       0.39472    0.44385    1.24859   1.00
C3       0.44016    0.44096    1.08180   1.00
C3       0.43351    0.38545    1.24915   1.00
H1       0.37133    0.36995    1.13692   1.00
H1       0.38023    0.46723    1.19185   1.00
H1       0.37265    0.37073    1.06468   1.00
H1       0.37922    0.46670    1.26395   1.00
H1       0.45973    0.46069    1.06679   1.00
H1       0.44853    0.36293    1.26543   1.00
C5       0.45774    0.35354    1.18739   1.00
H1       0.45879    0.45992    1.13901   1.00
H2       0.46755    0.33099    1.20854   1.00
H2       0.43863    0.33838    1.16603   1.00
N1       0.49206    0.36985    1.16792   1.00
C6       0.52128    0.38972    1.18512   1.00
C6       0.50038    0.36742    1.12960   1.00
C6       0.54843    0.40043    1.15743   1.00
C6       0.53513    0.38626    1.12211   1.00
H3       0.52274    0.39631    1.21599   1.00
H3       0.48209    0.35322    1.10809   1.00
H3       0.57498    0.41672    1.16241   1.00
H3       0.54915    0.38934    1.09403   1.00
C4       0.41500    0.64415    0.91490   1.00
C4       0.41500    0.68585    0.91510   1.00
C3       0.38994    0.62208    0.89077   1.00
C3       0.44418    0.70725    0.89542   1.00
C3       0.44068    0.62316    0.93938   1.00
C3a      0.38532    0.70763    0.93466   1.00
C2       0.41584    0.55983    0.91625   1.00
C2       0.41446    0.77017    0.91363   1.00
C3       0.39040    0.58066    0.89150   1.00
C3       0.44385    0.74859    0.89472   1.00
C3       0.44096    0.58180    0.94016   1.00
C3       0.38545    0.74915    0.93351   1.00
H1       0.36995    0.63692    0.87133   1.00
H1       0.46723    0.69185    0.88023   1.00
H1       0.37073    0.56468    0.87265   1.00
H1       0.46670    0.76395    0.87922   1.00
H1       0.46069    0.56679    0.95973   1.00
H1       0.36293    0.76543    0.94853   1.00
C5       0.35354    0.68739    0.95774   1.00
H1       0.45992    0.63901    0.95879   1.00
H2       0.33099    0.70854    0.96755   1.00
H2       0.33838    0.66603    0.93863   1.00
N1       0.36985    0.66792    0.99206   1.00
C6       0.38972    0.68512    1.02128   1.00
C6       0.36742    0.62960    1.00038   1.00
C6       0.40043    0.65743    1.04843   1.00
C6       0.38626    0.62211    1.03513   1.00
H3       0.39631    0.71599    1.02274   1.00
H3       0.35322    0.60809    0.98209   1.00
H3       0.41672    0.66241    1.07498   1.00
H3       0.38934    0.59403    1.04915   1.00
C4       0.18585    0.41490    0.91500   1.00
C4       0.14415    0.41510    0.91500   1.00
C3       0.20792    0.39077    0.94006   1.00
C3       0.12275    0.39542    0.88582   1.00
C3       0.20684    0.43938    0.88932   1.00
C3a      0.12237    0.43466    0.94468   1.00
C2       0.27017    0.41625    0.91416   1.00
C2       0.05983    0.41363    0.91554   1.00
C3       0.24934    0.39150    0.93960   1.00
C3       0.08141    0.39472    0.88615   1.00
C3       0.24820    0.44016    0.88904   1.00
C3       0.08085    0.43351    0.94455   1.00
H1       0.19308    0.37133    0.96005   1.00
H1       0.13815    0.38023    0.86277   1.00
H1       0.26532    0.37265    0.95927   1.00
H1       0.06605    0.37922    0.86330   1.00
H1       0.26321    0.45973    0.86931   1.00
H1       0.06457    0.44853    0.96707   1.00
C5       0.14261    0.45774    0.97646   1.00
H1       0.19099    0.45879    0.87008   1.00
H2       0.12146    0.46755    0.99901   1.00
H2       0.16397    0.43863    0.99162   1.00
N1       0.16208    0.49206    0.96015   1.00
C6       0.14488    0.52128    0.94028   1.00
C6       0.20040    0.50038    0.96258   1.00
C6       0.17257    0.54843    0.92957   1.00
C6       0.20789    0.53513    0.94374   1.00
H3       0.11401    0.52274    0.93369   1.00
H3       0.22191    0.48209    0.97678   1.00
H3       0.16759    0.57498    0.91328   1.00
H3       0.23597    0.54915    0.94066   1.00
C4       0.64415    0.41490    0.91500   1.00
C4       0.68585    0.41510    0.91500   1.00
C3       0.62208    0.39077    0.88994   1.00
C3       0.70725    0.39542    0.94418   1.00
C3       0.62316    0.43938    0.94068   1.00
C3a      0.70763    0.43466    0.88532   1.00
C2       0.55983    0.41625    0.91584   1.00
C2       0.77017    0.41363    0.91446   1.00
C3       0.58066    0.39150    0.89040   1.00
C3       0.74859    0.39472    0.94385   1.00
C3       0.58180    0.44016    0.94096   1.00
C3       0.74915    0.43351    0.88545   1.00
H1       0.63692    0.37133    0.86995   1.00
H1       0.69185    0.38023    0.96723   1.00
H1       0.56468    0.37265    0.87073   1.00
H1       0.76395    0.37922    0.96670   1.00
H1       0.56679    0.45973    0.96069   1.00
H1       0.76543    0.44853    0.86293   1.00
C5       0.68739    0.45774    0.85354   1.00
H1       0.63901    0.45879    0.95992   1.00
H2       0.70854    0.46755    0.83099   1.00
H2       0.66603    0.43863    0.83838   1.00
N1       0.66792    0.49206    0.86985   1.00
C6       0.68512    0.52128    0.88972   1.00
C6       0.62960    0.50038    0.86742   1.00
C6       0.65743    0.54843    0.90043   1.00
C6       0.62211    0.53513    0.88626   1.00
H3       0.71599    0.52274    0.89631   1.00
H3       0.60809    0.48209    0.85322   1.00
H3       0.66241    0.57498    0.91672   1.00
H3       0.59403    0.54915    0.88934   1.00
C4       0.41500    0.18585    0.91490   1.00
C4       0.41500    0.14415    0.91510   1.00
C3       0.44006    0.20792    0.89077   1.00
C3       0.38582    0.12275    0.89542   1.00
C3       0.38932    0.20684    0.93938   1.00
C3a      0.44468    0.12237    0.93466   1.00
C2       0.41416    0.27017    0.91625   1.00
C2       0.41554    0.05983    0.91363   1.00
C3       0.43960    0.24934    0.89150   1.00
C3       0.38615    0.08141    0.89472   1.00
C3       0.38904    0.24820    0.94016   1.00
C3       0.44455    0.08085    0.93351   1.00
H1       0.46005    0.19308    0.87133   1.00
H1       0.36277    0.13815    0.88023   1.00
H1       0.45927    0.26532    0.87265   1.00
H1       0.36330    0.06605    0.87922   1.00
H1       0.36931    0.26321    0.95973   1.00
H1       0.46707    0.06457    0.94853   1.00
C5       0.47646    0.14261    0.95774   1.00
H1       0.37008    0.19099    0.95879   1.00
H2       0.49901    0.12146    0.96755   1.00
H2       0.49162    0.16397    0.93863   1.00
N1       0.46015    0.16208    0.99206   1.00
C6       0.44028    0.14488    1.02128   1.00
C6       0.46258    0.20040    1.00038   1.00
C6       0.42957    0.17257    1.04843   1.00
C6       0.44374    0.20789    1.03513   1.00
H3       0.43369    0.11401    1.02274   1.00
H3       0.47678    0.22191    0.98209   1.00
H3       0.41328    0.16759    1.07498   1.00
H3       0.44066    0.23597    1.04915   1.00
C4       0.41490    0.41500    0.68585   1.00
C4       0.41510    0.41500    0.64415   1.00
C3       0.39077    0.44006    0.70792   1.00
C3       0.39542    0.38582    0.62275   1.00
C3       0.43938    0.38932    0.70684   1.00
C3a      0.43466    0.44468    0.62237   1.00
C2       0.41625    0.41416    0.77017   1.00
C2       0.41363    0.41554    0.55983   1.00
C3       0.39150    0.43960    0.74934   1.00
C3       0.39472    0.38615    0.58141   1.00
C3       0.44016    0.38904    0.74820   1.00
C3       0.43351    0.44455    0.58085   1.00
H1       0.37133    0.46005    0.69308   1.00
H1       0.38023    0.36277    0.63815   1.00
H1       0.37265    0.45927    0.76532   1.00
H1       0.37922    0.36330    0.56605   1.00
H1       0.45973    0.36931    0.76321   1.00
H1       0.44853    0.46707    0.56457   1.00
C5       0.45774    0.47646    0.64261   1.00
H1       0.45879    0.37008    0.69099   1.00
H2       0.46755    0.49901    0.62146   1.00
H2       0.43863    0.49162    0.66397   1.00
N1       0.49206    0.46015    0.66208   1.00
C6       0.52128    0.44028    0.64488   1.00
C6       0.50038    0.46258    0.70040   1.00
C6       0.54843    0.42957    0.67257   1.00
C6       0.53513    0.44374    0.70789   1.00
H3       0.52274    0.43369    0.61401   1.00
H3       0.48209    0.47678    0.72191   1.00
H3       0.57498    0.41328    0.66759   1.00
H3       0.54915    0.44066    0.73597   1.00
C4       0.41490    0.91500    0.64415   1.00
C4       0.41510    0.91500    0.68585   1.00
C3       0.39077    0.88994    0.62208   1.00
C3       0.39542    0.94418    0.70725   1.00
C3       0.43938    0.94068    0.62316   1.00
C3a      0.43466    0.88532    0.70763   1.00
C2       0.41625    0.91584    0.55983   1.00
C2       0.41363    0.91446    0.77017   1.00
C3       0.39150    0.89040    0.58066   1.00
C3       0.39472    0.94385    0.74859   1.00
C3       0.44016    0.94096    0.58180   1.00
C3       0.43351    0.88545    0.74915   1.00
H1       0.37133    0.86995    0.63692   1.00
H1       0.38023    0.96723    0.69185   1.00
H1       0.37265    0.87073    0.56468   1.00
H1       0.37922    0.96670    0.76395   1.00
H1       0.45973    0.96069    0.56679   1.00
H1       0.44853    0.86293    0.76543   1.00
C5       0.45774    0.85354    0.68739   1.00
H1       0.45879    0.95992    0.63901   1.00
H2       0.46755    0.83099    0.70854   1.00
H2       0.43863    0.83838    0.66603   1.00
N1       0.49206    0.86985    0.66792   1.00
C6       0.52128    0.88972    0.68512   1.00
C6       0.50038    0.86742    0.62960   1.00
C6       0.54843    0.90043    0.65743   1.00
C6       0.53513    0.88626    0.62211   1.00
H3       0.52274    0.89631    0.71599   1.00
H3       0.48209    0.85322    0.60809   1.00
H3       0.57498    0.91672    0.66241   1.00
H3       0.54915    0.88934    0.59403   1.00
C4       0.41500    1.14415    0.41490   1.00
C4       0.41500    1.18585    0.41510   1.00
C3       0.38994    1.12208    0.39077   1.00
C3       0.44418    1.20725    0.39542   1.00
C3       0.44068    1.12316    0.43938   1.00
C3a      0.38532    1.20763    0.43466   1.00
C2       0.41584    1.05983    0.41625   1.00
C2       0.41446    1.27017    0.41363   1.00
C3       0.39040    1.08066    0.39150   1.00
C3       0.44385    1.24859    0.39472   1.00
C3       0.44096    1.08180    0.44016   1.00
C3       0.38545    1.24915    0.43351   1.00
H1       0.36995    1.13692    0.37133   1.00
H1       0.46723    1.19185    0.38023   1.00
H1       0.37073    1.06468    0.37265   1.00
H1       0.46670    1.26395    0.37922   1.00
H1       0.46069    1.06679    0.45973   1.00
H1       0.36293    1.26543    0.44853   1.00
C5       0.35354    1.18739    0.45774   1.00
H1       0.45992    1.13901    0.45879   1.00
H2       0.33099    1.20854    0.46755   1.00
H2       0.33838    1.16603    0.43863   1.00
N1       0.36985    1.16792    0.49206   1.00
C6       0.38972    1.18512    0.52128   1.00
C6       0.36742    1.12960    0.50038   1.00
C6       0.40043    1.15743    0.54843   1.00
C6       0.38626    1.12211    0.53513   1.00
H3       0.39631    1.21599    0.52274   1.00
H3       0.35322    1.10809    0.48209   1.00
H3       0.41672    1.16241    0.57498   1.00
H3       0.38934    1.09403    0.54915   1.00
C4       0.18585    0.91490    0.41500   1.00
C4       0.14415    0.91510    0.41500   1.00
C3       0.20792    0.89077    0.44006   1.00
C3       0.12275    0.89542    0.38582   1.00
C3       0.20684    0.93938    0.38932   1.00
C3a      0.12237    0.93466    0.44468   1.00
C2       0.27017    0.91625    0.41416   1.00
C2       0.05983    0.91363    0.41554   1.00
C3       0.24934    0.89150    0.43960   1.00
C3       0.08141    0.89472    0.38615   1.00
C3       0.24820    0.94016    0.38904   1.00
C3       0.08085    0.93351    0.44455   1.00
H1       0.19308    0.87133    0.46005   1.00
H1       0.13815    0.88023    0.36277   1.00
H1       0.26532    0.87265    0.45927   1.00
H1       0.06605    0.87922    0.36330   1.00
H1       0.26321    0.95973    0.36931   1.00
H1       0.06457    0.94853    0.46707   1.00
C5       0.14261    0.95774    0.47646   1.00
H1       0.19099    0.95879    0.37008   1.00
H2       0.12146    0.96755    0.49901   1.00
H2       0.16397    0.93863    0.49162   1.00
N1       0.16208    0.99206    0.46015   1.00
C6       0.14488    1.02128    0.44028   1.00
C6       0.20040    1.00038    0.46258   1.00
C6       0.17257    1.04843    0.42957   1.00
C6       0.20789    1.03513    0.44374   1.00
H3       0.11401    1.02274    0.43369   1.00
H3       0.22191    0.98209    0.47678   1.00
H3       0.16759    1.07498    0.41328   1.00
H3       0.23597    1.04915    0.44066   1.00
C4       0.64415    0.91490    0.41500   1.00
C4       0.68585    0.91510    0.41500   1.00
C3       0.62208    0.89077    0.38994   1.00
C3       0.70725    0.89542    0.44418   1.00
C3       0.62316    0.93938    0.44068   1.00
C3a      0.70763    0.93466    0.38532   1.00
C2       0.55983    0.91625    0.41584   1.00
C2       0.77017    0.91363    0.41446   1.00
C3       0.58066    0.89150    0.39040   1.00
C3       0.74859    0.89472    0.44385   1.00
C3       0.58180    0.94016    0.44096   1.00
C3       0.74915    0.93351    0.38545   1.00
H1       0.63692    0.87133    0.36995   1.00
H1       0.69185    0.88023    0.46723   1.00
H1       0.56468    0.87265    0.37073   1.00
H1       0.76395    0.87922    0.46670   1.00
H1       0.56679    0.95973    0.46069   1.00
H1       0.76543    0.94853    0.36293   1.00
C5       0.68739    0.95774    0.35354   1.00
H1       0.63901    0.95879    0.45992   1.00
H2       0.70854    0.96755    0.33099   1.00
H2       0.66603    0.93863    0.33838   1.00
N1       0.66792    0.99206    0.36985   1.00
C6       0.68512    1.02128    0.38972   1.00
C6       0.62960    1.00038    0.36742   1.00
C6       0.65743    1.04843    0.40043   1.00
C6       0.62211    1.03513    0.38626   1.00
H3       0.71599    1.02274    0.39631   1.00
H3       0.60809    0.98209    0.35322   1.00
H3       0.66241    1.07498    0.41672   1.00
H3       0.59403    1.04915    0.38934   1.00
C4       0.41500    0.68585    0.41490   1.00
C4       0.41500    0.64415    0.41510   1.00
C3       0.44006    0.70792    0.39077   1.00
C3       0.38582    0.62275    0.39542   1.00
C3       0.38932    0.70684    0.43938   1.00
C3a      0.44468    0.62237    0.43466   1.00
C2       0.41416    0.77017    0.41625   1.00
C2       0.41554    0.55983    0.41363   1.00
C3       0.43960    0.74934    0.39150   1.00
C3       0.38615    0.58141    0.39472   1.00
C3       0.38904    0.74820    0.44016   1.00
C3       0.44455    0.58085    0.43351   1.00
H1       0.46005    0.69308    0.37133   1.00
H1       0.36277    0.63815    0.38023   1.00
H1       0.45927    0.76532    0.37265   1.00
H1       0.36330    0.56605    0.37922   1.00
H1       0.36931    0.76321    0.45973   1.00
H1       0.46707    0.56457    0.44853   1.00
C5       0.47646    0.64261    0.45774   1.00
H1       0.37008    0.69099    0.45879   1.00
H2       0.49901    0.62146    0.46755   1.00
H2       0.49162    0.66397    0.43863   1.00
N1       0.46015    0.66208    0.49206   1.00
C6       0.44028    0.64488    0.52128   1.00
C6       0.46258    0.70040    0.50038   1.00
C6       0.42957    0.67257    0.54843   1.00
C6       0.44374    0.70789    0.53513   1.00
H3       0.43369    0.61401    0.52274   1.00
H3       0.47678    0.72191    0.48209   1.00
H3       0.41328    0.66759    0.57498   1.00
H3       0.44066    0.73597    0.54915   1.00
C4       0.41490    0.91500    0.18585   1.00
C4       0.41510    0.91500    0.14415   1.00
C3       0.39077    0.94006    0.20792   1.00
C3       0.39542    0.88582    0.12275   1.00
C3       0.43938    0.88932    0.20684   1.00
C3a      0.43466    0.94468    0.12237   1.00
C2       0.41625    0.91416    0.27017   1.00
C2       0.41363    0.91554    0.05983   1.00
C3       0.39150    0.93960    0.24934   1.00
C3       0.39472    0.88615    0.08141   1.00
C3       0.44016    0.88904    0.24820   1.00
C3       0.43351    0.94455    0.08085   1.00
H1       0.37133    0.96005    0.19308   1.00
H1       0.38023    0.86277    0.13815   1.00
H1       0.37265    0.95927    0.26532   1.00
H1       0.37922    0.86330    0.06605   1.00
H1       0.45973    0.86931    0.26321   1.00
H1       0.44853    0.96707    0.06457   1.00
C5       0.45774    0.97646    0.14261   1.00
H1       0.45879    0.87008    0.19099   1.00
H2       0.46755    0.99901    0.12146   1.00
H2       0.43863    0.99162    0.16397   1.00
N1       0.49206    0.96015    0.16208   1.00
C6       0.52128    0.94028    0.14488   1.00
C6       0.50038    0.96258    0.20040   1.00
C6       0.54843    0.92957    0.17257   1.00
C6       0.53513    0.94374    0.20789   1.00
H3       0.52274    0.93369    0.11401   1.00
H3       0.48209    0.97678    0.22191   1.00
H3       0.57498    0.91328    0.16759   1.00
H3       0.54915    0.94066    0.23597   1.00
C4       0.91490    0.41500    0.64415   1.00
C4       0.91510    0.41500    0.68585   1.00
C3       0.89077    0.38994    0.62208   1.00
C3       0.89542    0.44418    0.70725   1.00
C3       0.93938    0.44068    0.62316   1.00
C3a      0.93466    0.38532    0.70763   1.00
C2       0.91625    0.41584    0.55983   1.00
C2       0.91363    0.41446    0.77017   1.00
C3       0.89150    0.39040    0.58066   1.00
C3       0.89472    0.44385    0.74859   1.00
C3       0.94016    0.44096    0.58180   1.00
C3       0.93351    0.38545    0.74915   1.00
H1       0.87133    0.36995    0.63692   1.00
H1       0.88023    0.46723    0.69185   1.00
H1       0.87265    0.37073    0.56468   1.00
H1       0.87922    0.46670    0.76395   1.00
H1       0.95973    0.46069    0.56679   1.00
H1       0.94853    0.36293    0.76543   1.00
C5       0.95774    0.35354    0.68739   1.00
H1       0.95879    0.45992    0.63901   1.00
H2       0.96755    0.33099    0.70854   1.00
H2       0.93863    0.33838    0.66603   1.00
N1       0.99206    0.36985    0.66792   1.00
C6       1.02128    0.38972    0.68512   1.00
C6       1.00038    0.36742    0.62960   1.00
C6       1.04843    0.40043    0.65743   1.00
C6       1.03513    0.38626    0.62211   1.00
H3       1.02274    0.39631    0.71599   1.00
H3       0.98209    0.35322    0.60809   1.00
H3       1.07498    0.41672    0.66241   1.00
H3       1.04915    0.38934    0.59403   1.00
C4       0.91500    0.64415    0.41490   1.00
C4       0.91500    0.68585    0.41510   1.00
C3       0.88994    0.62208    0.39077   1.00
C3       0.94418    0.70725    0.39542   1.00
C3       0.94068    0.62316    0.43938   1.00
C3a      0.88532    0.70763    0.43466   1.00
C2       0.91584    0.55983    0.41625   1.00
C2       0.91446    0.77017    0.41363   1.00
C3       0.89040    0.58066    0.39150   1.00
C3       0.94385    0.74859    0.39472   1.00
C3       0.94096    0.58180    0.44016   1.00
C3       0.88545    0.74915    0.43351   1.00
H1       0.86995    0.63692    0.37133   1.00
H1       0.96723    0.69185    0.38023   1.00
H1       0.87073    0.56468    0.37265   1.00
H1       0.96670    0.76395    0.37922   1.00
H1       0.96069    0.56679    0.45973   1.00
H1       0.86293    0.76543    0.44853   1.00
C5       0.85354    0.68739    0.45774   1.00
H1       0.95992    0.63901    0.45879   1.00
H2       0.83099    0.70854    0.46755   1.00
H2       0.83838    0.66603    0.43863   1.00
N1       0.86985    0.66792    0.49206   1.00
C6       0.88972    0.68512    0.52128   1.00
C6       0.86742    0.62960    0.50038   1.00
C6       0.90043    0.65743    0.54843   1.00
C6       0.88626    0.62211    0.53513   1.00
H3       0.89631    0.71599    0.52274   1.00
H3       0.85322    0.60809    0.48209   1.00
H3       0.91672    0.66241    0.57498   1.00
H3       0.88934    0.59403    0.54915   1.00
C4       0.68585    0.41490    0.41500   1.00
C4       0.64415    0.41510    0.41500   1.00
C3       0.70792    0.39077    0.44006   1.00
C3       0.62275    0.39542    0.38582   1.00
C3       0.70684    0.43938    0.38932   1.00
C3a      0.62237    0.43466    0.44468   1.00
C2       0.77017    0.41625    0.41416   1.00
C2       0.55983    0.41363    0.41554   1.00
C3       0.74934    0.39150    0.43960   1.00
C3       0.58141    0.39472    0.38615   1.00
C3       0.74820    0.44016    0.38904   1.00
C3       0.58085    0.43351    0.44455   1.00
H1       0.69308    0.37133    0.46005   1.00
H1       0.63815    0.38023    0.36277   1.00
H1       0.76532    0.37265    0.45927   1.00
H1       0.56605    0.37922    0.36330   1.00
H1       0.76321    0.45973    0.36931   1.00
H1       0.56457    0.44853    0.46707   1.00
C5       0.64261    0.45774    0.47646   1.00
H1       0.69099    0.45879    0.37008   1.00
H2       0.62146    0.46755    0.49901   1.00
H2       0.66397    0.43863    0.49162   1.00
N1       0.66208    0.49206    0.46015   1.00
C6       0.64488    0.52128    0.44028   1.00
C6       0.70040    0.50038    0.46258   1.00
C6       0.67257    0.54843    0.42957   1.00
C6       0.70789    0.53513    0.44374   1.00
H3       0.61401    0.52274    0.43369   1.00
H3       0.72191    0.48209    0.47678   1.00
H3       0.66759    0.57498    0.41328   1.00
H3       0.73597    0.54915    0.44066   1.00
C4       1.14415    0.41490    0.41500   1.00
C4       1.18585    0.41510    0.41500   1.00
C3       1.12208    0.39077    0.38994   1.00
C3       1.20725    0.39542    0.44418   1.00
C3       1.12316    0.43938    0.44068   1.00
C3a      1.20763    0.43466    0.38532   1.00
C2       1.05983    0.41625    0.41584   1.00
C2       1.27017    0.41363    0.41446   1.00
C3       1.08066    0.39150    0.39040   1.00
C3       1.24859    0.39472    0.44385   1.00
C3       1.08180    0.44016    0.44096   1.00
C3       1.24915    0.43351    0.38545   1.00
H1       1.13692    0.37133    0.36995   1.00
H1       1.19185    0.38023    0.46723   1.00
H1       1.06468    0.37265    0.37073   1.00
H1       1.26395    0.37922    0.46670   1.00
H1       1.06679    0.45973    0.46069   1.00
H1       1.26543    0.44853    0.36293   1.00
C5       1.18739    0.45774    0.35354   1.00
H1       1.13901    0.45879    0.45992   1.00
H2       1.20854    0.46755    0.33099   1.00
H2       1.16603    0.43863    0.33838   1.00
N1       1.16792    0.49206    0.36985   1.00
C6       1.18512    0.52128    0.38972   1.00
C6       1.12960    0.50038    0.36742   1.00
C6       1.15743    0.54843    0.40043   1.00
C6       1.12211    0.53513    0.38626   1.00
H3       1.21599    0.52274    0.39631   1.00
H3       1.10809    0.48209    0.35322   1.00
H3       1.16241    0.57498    0.41672   1.00
H3       1.09403    0.54915    0.38934   1.00
C4       0.91500    0.18585    0.41490   1.00
C4       0.91500    0.14415    0.41510   1.00
C3       0.94006    0.20792    0.39077   1.00
C3       0.88582    0.12275    0.39542   1.00
C3       0.88932    0.20684    0.43938   1.00
C3a      0.94468    0.12237    0.43466   1.00
C2       0.91416    0.27017    0.41625   1.00
C2       0.91554    0.05983    0.41363   1.00
C3       0.93960    0.24934    0.39150   1.00
C3       0.88615    0.08141    0.39472   1.00
C3       0.88904    0.24820    0.44016   1.00
C3       0.94455    0.08085    0.43351   1.00
H1       0.96005    0.19308    0.37133   1.00
H1       0.86277    0.13815    0.38023   1.00
H1       0.95927    0.26532    0.37265   1.00
H1       0.86330    0.06605    0.37922   1.00
H1       0.86931    0.26321    0.45973   1.00
H1       0.96707    0.06457    0.44853   1.00
C5       0.97646    0.14261    0.45774   1.00
H1       0.87008    0.19099    0.45879   1.00
H2       0.99901    0.12146    0.46755   1.00
H2       0.99162    0.16397    0.43863   1.00
N1       0.96015    0.16208    0.49206   1.00
C6       0.94028    0.14488    0.52128   1.00
C6       0.96258    0.20040    0.50038   1.00
C6       0.92957    0.17257    0.54843   1.00
C6       0.94374    0.20789    0.53513   1.00
H3       0.93369    0.11401    0.52274   1.00
H3       0.97678    0.22191    0.48209   1.00
H3       0.91328    0.16759    0.57498   1.00
H3       0.94066    0.23597    0.54915   1.00
C4       0.91490    0.41500    0.18585   1.00
C4       0.91510    0.41500    0.14415   1.00
C3       0.89077    0.44006    0.20792   1.00
C3       0.89542    0.38582    0.12275   1.00
C3       0.93938    0.38932    0.20684   1.00
C3a      0.93466    0.44468    0.12237   1.00
C2       0.91625    0.41416    0.27017   1.00
C2       0.91363    0.41554    0.05983   1.00
C3       0.89150    0.43960    0.24934   1.00
C3       0.89472    0.38615    0.08141   1.00
C3       0.94016    0.38904    0.24820   1.00
C3       0.93351    0.44455    0.08085   1.00
H1       0.87133    0.46005    0.19308   1.00
H1       0.88023    0.36277    0.13815   1.00
H1       0.87265    0.45927    0.26532   1.00
H1       0.87922    0.36330    0.06605   1.00
H1       0.95973    0.36931    0.26321   1.00
H1       0.94853    0.46707    0.06457   1.00
C5       0.95774    0.47646    0.14261   1.00
H1       0.95879    0.37008    0.19099   1.00
H2       0.96755    0.49901    0.12146   1.00
H2       0.93863    0.49162    0.16397   1.00
N1       0.99206    0.46015    0.16208   1.00
C6       1.02128    0.44028    0.14488   1.00
C6       1.00038    0.46258    0.20040   1.00
C6       1.04843    0.42957    0.17257   1.00
C6       1.03513    0.44374    0.20789   1.00
H3       1.02274    0.43369    0.11401   1.00
H3       0.98209    0.47678    0.22191   1.00
H3       1.07498    0.41328    0.16759   1.00
H3       1.04915    0.44066    0.23597   1.00
