data_IRMOF10_SG202_interpen_Ligand10cp_label_j.

_audit_creation_method             'generated by an auxiliary program of Tobunporous'

_symmetry_space_group_name_H-M     'P 1'
_symmetry_Int_Tables_number        1
_symmetry_cell_setting             triclinic

_cell_length_a                    34.2800
_cell_length_b                    34.2800
_cell_length_c                    34.2800
_cell_angle_alpha                 90.0000
_cell_angle_beta                  90.0000
_cell_angle_gamma                 90.0000

loop_
_atom_site_label
_atom_site_fract_x
_atom_site_fract_y
_atom_site_fract_z
_atom_site_occupancy
O1       0.75000    0.75000    0.75000   1.00
Zn1      0.71720    0.78280    0.78280   1.00
Zn1      0.78280    0.71720    0.78280   1.00
Zn1      0.78280    0.78280    0.71720   1.00
Zn1      0.71720    0.71720    0.71720   1.00
O2       0.72650    0.77350    0.83820   1.00
O2       0.72650    0.83820    0.77350   1.00
O2       0.66180    0.77350    0.77350   1.00
O2       0.77350    0.72650    0.83820   1.00
O2       0.83820    0.72650    0.77350   1.00
O2       0.77350    0.66180    0.77350   1.00
O2       0.77350    0.83820    0.72650   1.00
O2       0.83820    0.77350    0.72650   1.00
O2       0.77350    0.77350    0.66180   1.00
O2       0.66180    0.72650    0.72650   1.00
O2       0.72650    0.66180    0.72650   1.00
O2       0.72650    0.72650    0.66180   1.00
C1       0.75000    0.75000    0.85520   1.00
C1       0.75000    0.85520    0.75000   1.00
C1       0.64480    0.75000    0.75000   1.00
C1       0.85520    0.75000    0.75000   1.00
C1       0.75000    0.64480    0.75000   1.00
C1       0.75000    0.75000    0.64480   1.00
O1       0.25000    0.25000    0.75000   1.00
Zn1      0.21720    0.28280    0.78280   1.00
Zn1      0.28280    0.21720    0.78280   1.00
Zn1      0.28280    0.28280    0.71720   1.00
Zn1      0.21720    0.21720    0.71720   1.00
O2       0.22650    0.27350    0.83820   1.00
O2       0.22650    0.33820    0.77350   1.00
O2       0.16180    0.27350    0.77350   1.00
O2       0.27350    0.22650    0.83820   1.00
O2       0.33820    0.22650    0.77350   1.00
O2       0.27350    0.16180    0.77350   1.00
O2       0.27350    0.33820    0.72650   1.00
O2       0.33820    0.27350    0.72650   1.00
O2       0.27350    0.27350    0.66180   1.00
O2       0.16180    0.22650    0.72650   1.00
O2       0.22650    0.16180    0.72650   1.00
O2       0.22650    0.22650    0.66180   1.00
C1       0.25000    0.25000    0.85520   1.00
C1       0.25000    0.35520    0.75000   1.00
C1       0.14480    0.25000    0.75000   1.00
C1       0.35520    0.25000    0.75000   1.00
C1       0.25000    0.14480    0.75000   1.00
C1       0.25000    0.25000    0.64480   1.00
O1       0.25000    0.75000    0.25000   1.00
Zn1      0.21720    0.78280    0.28280   1.00
Zn1      0.28280    0.71720    0.28280   1.00
Zn1      0.28280    0.78280    0.21720   1.00
Zn1      0.21720    0.71720    0.21720   1.00
O2       0.22650    0.77350    0.33820   1.00
O2       0.22650    0.83820    0.27350   1.00
O2       0.16180    0.77350    0.27350   1.00
O2       0.27350    0.72650    0.33820   1.00
O2       0.33820    0.72650    0.27350   1.00
O2       0.27350    0.66180    0.27350   1.00
O2       0.27350    0.83820    0.22650   1.00
O2       0.33820    0.77350    0.22650   1.00
O2       0.27350    0.77350    0.16180   1.00
O2       0.16180    0.72650    0.22650   1.00
O2       0.22650    0.66180    0.22650   1.00
O2       0.22650    0.72650    0.16180   1.00
C1       0.25000    0.75000    0.35520   1.00
C1       0.25000    0.85520    0.25000   1.00
C1       0.14480    0.75000    0.25000   1.00
C1       0.35520    0.75000    0.25000   1.00
C1       0.25000    0.64480    0.25000   1.00
C1       0.25000    0.75000    0.14480   1.00
O1       0.75000    0.25000    0.25000   1.00
Zn1      0.71720    0.28280    0.28280   1.00
Zn1      0.78280    0.21720    0.28280   1.00
Zn1      0.78280    0.28280    0.21720   1.00
Zn1      0.71720    0.21720    0.21720   1.00
O2       0.72650    0.27350    0.33820   1.00
O2       0.72650    0.33820    0.27350   1.00
O2       0.66180    0.27350    0.27350   1.00
O2       0.77350    0.22650    0.33820   1.00
O2       0.83820    0.22650    0.27350   1.00
O2       0.77350    0.16180    0.27350   1.00
O2       0.77350    0.33820    0.22650   1.00
O2       0.83820    0.27350    0.22650   1.00
O2       0.77350    0.27350    0.16180   1.00
O2       0.66180    0.22650    0.22650   1.00
O2       0.72650    0.16180    0.22650   1.00
O2       0.72650    0.22650    0.16180   1.00
C1       0.75000    0.25000    0.35520   1.00
C1       0.75000    0.35520    0.25000   1.00
C1       0.64480    0.25000    0.25000   1.00
C1       0.85520    0.25000    0.25000   1.00
C1       0.75000    0.14480    0.25000   1.00
C1       0.75000    0.25000    0.14480   1.00
O1       0.25000    0.25000    0.25000   1.00
Zn1      0.28280    0.21720    0.21720   1.00
Zn1      0.21720    0.28280    0.21720   1.00
Zn1      0.21720    0.21720    0.28280   1.00
Zn1      0.28280    0.28280    0.28280   1.00
O2       0.27350    0.22650    0.16180   1.00
O2       0.27350    0.16180    0.22650   1.00
O2       0.33820    0.22650    0.22650   1.00
O2       0.22650    0.27350    0.16180   1.00
O2       0.16180    0.27350    0.22650   1.00
O2       0.22650    0.33820    0.22650   1.00
O2       0.22650    0.16180    0.27350   1.00
O2       0.16180    0.22650    0.27350   1.00
O2       0.22650    0.22650    0.33820   1.00
O2       0.33820    0.27350    0.27350   1.00
O2       0.27350    0.33820    0.27350   1.00
O2       0.27350    0.27350    0.33820   1.00
C1       0.25000    0.25000    0.14480   1.00
C1       0.25000    0.14480    0.25000   1.00
C1       0.35520    0.25000    0.25000   1.00
C1       0.14480    0.25000    0.25000   1.00
C1       0.25000    0.35520    0.25000   1.00
C1       0.25000    0.25000    0.35520   1.00
O1       0.75000    0.75000    0.25000   1.00
Zn1      0.78280    0.71720    0.21720   1.00
Zn1      0.71720    0.78280    0.21720   1.00
Zn1      0.71720    0.71720    0.28280   1.00
Zn1      0.78280    0.78280    0.28280   1.00
O2       0.77350    0.72650    0.16180   1.00
O2       0.77350    0.66180    0.22650   1.00
O2       0.83820    0.72650    0.22650   1.00
O2       0.72650    0.77350    0.16180   1.00
O2       0.66180    0.77350    0.22650   1.00
O2       0.72650    0.83820    0.22650   1.00
O2       0.72650    0.66180    0.27350   1.00
O2       0.66180    0.72650    0.27350   1.00
O2       0.72650    0.72650    0.33820   1.00
O2       0.83820    0.77350    0.27350   1.00
O2       0.77350    0.83820    0.27350   1.00
O2       0.77350    0.77350    0.33820   1.00
C1       0.75000    0.75000    0.14480   1.00
C1       0.75000    0.64480    0.25000   1.00
C1       0.85520    0.75000    0.25000   1.00
C1       0.64480    0.75000    0.25000   1.00
C1       0.75000    0.85520    0.25000   1.00
C1       0.75000    0.75000    0.35520   1.00
O1       0.75000    0.25000    0.75000   1.00
Zn1      0.78280    0.21720    0.71720   1.00
Zn1      0.71720    0.28280    0.71720   1.00
Zn1      0.71720    0.21720    0.78280   1.00
Zn1      0.78280    0.28280    0.78280   1.00
O2       0.77350    0.22650    0.66180   1.00
O2       0.77350    0.16180    0.72650   1.00
O2       0.83820    0.22650    0.72650   1.00
O2       0.72650    0.27350    0.66180   1.00
O2       0.66180    0.27350    0.72650   1.00
O2       0.72650    0.33820    0.72650   1.00
O2       0.72650    0.16180    0.77350   1.00
O2       0.66180    0.22650    0.77350   1.00
O2       0.72650    0.22650    0.83820   1.00
O2       0.83820    0.27350    0.77350   1.00
O2       0.77350    0.33820    0.77350   1.00
O2       0.77350    0.27350    0.83820   1.00
C1       0.75000    0.25000    0.64480   1.00
C1       0.75000    0.14480    0.75000   1.00
C1       0.85520    0.25000    0.75000   1.00
C1       0.64480    0.25000    0.75000   1.00
C1       0.75000    0.35520    0.75000   1.00
C1       0.75000    0.25000    0.85520   1.00
O1       0.25000    0.75000    0.75000   1.00
Zn1      0.28280    0.71720    0.71720   1.00
Zn1      0.21720    0.78280    0.71720   1.00
Zn1      0.21720    0.71720    0.78280   1.00
Zn1      0.28280    0.78280    0.78280   1.00
O2       0.27350    0.72650    0.66180   1.00
O2       0.27350    0.66180    0.72650   1.00
O2       0.33820    0.72650    0.72650   1.00
O2       0.22650    0.77350    0.66180   1.00
O2       0.16180    0.77350    0.72650   1.00
O2       0.22650    0.83820    0.72650   1.00
O2       0.22650    0.66180    0.77350   1.00
O2       0.16180    0.72650    0.77350   1.00
O2       0.22650    0.72650    0.83820   1.00
O2       0.33820    0.77350    0.77350   1.00
O2       0.27350    0.83820    0.77350   1.00
O2       0.27350    0.77350    0.83820   1.00
C1       0.25000    0.75000    0.64480   1.00
C1       0.25000    0.64480    0.75000   1.00
C1       0.35520    0.75000    0.75000   1.00
C1       0.14480    0.75000    0.75000   1.00
C1       0.25000    0.85520    0.75000   1.00
C1       0.25000    0.75000    0.85520   1.00
O1       0.91500    0.91500    0.91500   1.00
Zn1      0.88220    0.94780    0.94780   1.00
Zn1      0.94780    0.88220    0.94780   1.00
Zn1      0.94780    0.94780    0.88220   1.00
Zn1      0.88220    0.88220    0.88220   1.00
O2       0.89150    0.93850    1.00320   1.00
O2       0.89150    1.00320    0.93850   1.00
O2       0.82680    0.93850    0.93850   1.00
O2       0.93850    0.89150    1.00320   1.00
O2       1.00320    0.89150    0.93850   1.00
O2       0.93850    0.82680    0.93850   1.00
O2       0.93850    1.00320    0.89150   1.00
O2       1.00320    0.93850    0.89150   1.00
O2       0.93850    0.93850    0.82680   1.00
O2       0.82680    0.89150    0.89150   1.00
O2       0.89150    0.82680    0.89150   1.00
O2       0.89150    0.89150    0.82680   1.00
C1       0.91500    0.91500    1.02020   1.00
C1       0.91500    1.02020    0.91500   1.00
C1       0.80980    0.91500    0.91500   1.00
C1       1.02020    0.91500    0.91500   1.00
C1       0.91500    0.80980    0.91500   1.00
C1       0.91500    0.91500    0.80980   1.00
O1       0.41500    0.41500    0.91500   1.00
Zn1      0.38220    0.44780    0.94780   1.00
Zn1      0.44780    0.38220    0.94780   1.00
Zn1      0.44780    0.44780    0.88220   1.00
Zn1      0.38220    0.38220    0.88220   1.00
O2       0.39150    0.43850    1.00320   1.00
O2       0.39150    0.50320    0.93850   1.00
O2       0.32680    0.43850    0.93850   1.00
O2       0.43850    0.39150    1.00320   1.00
O2       0.50320    0.39150    0.93850   1.00
O2       0.43850    0.32680    0.93850   1.00
O2       0.43850    0.50320    0.89150   1.00
O2       0.50320    0.43850    0.89150   1.00
O2       0.43850    0.43850    0.82680   1.00
O2       0.32680    0.39150    0.89150   1.00
O2       0.39150    0.32680    0.89150   1.00
O2       0.39150    0.39150    0.82680   1.00
C1       0.41500    0.41500    1.02020   1.00
C1       0.41500    0.52020    0.91500   1.00
C1       0.30980    0.41500    0.91500   1.00
C1       0.52020    0.41500    0.91500   1.00
C1       0.41500    0.30980    0.91500   1.00
C1       0.41500    0.41500    0.80980   1.00
O1       0.41500    0.91500    0.41500   1.00
Zn1      0.38220    0.94780    0.44780   1.00
Zn1      0.44780    0.88220    0.44780   1.00
Zn1      0.44780    0.94780    0.38220   1.00
Zn1      0.38220    0.88220    0.38220   1.00
O2       0.39150    0.93850    0.50320   1.00
O2       0.39150    1.00320    0.43850   1.00
O2       0.32680    0.93850    0.43850   1.00
O2       0.43850    0.89150    0.50320   1.00
O2       0.50320    0.89150    0.43850   1.00
O2       0.43850    0.82680    0.43850   1.00
O2       0.43850    1.00320    0.39150   1.00
O2       0.50320    0.93850    0.39150   1.00
O2       0.43850    0.93850    0.32680   1.00
O2       0.32680    0.89150    0.39150   1.00
O2       0.39150    0.82680    0.39150   1.00
O2       0.39150    0.89150    0.32680   1.00
C1       0.41500    0.91500    0.52020   1.00
C1       0.41500    1.02020    0.41500   1.00
C1       0.30980    0.91500    0.41500   1.00
C1       0.52020    0.91500    0.41500   1.00
C1       0.41500    0.80980    0.41500   1.00
C1       0.41500    0.91500    0.30980   1.00
O1       0.91500    0.41500    0.41500   1.00
Zn1      0.88220    0.44780    0.44780   1.00
Zn1      0.94780    0.38220    0.44780   1.00
Zn1      0.94780    0.44780    0.38220   1.00
Zn1      0.88220    0.38220    0.38220   1.00
O2       0.89150    0.43850    0.50320   1.00
O2       0.89150    0.50320    0.43850   1.00
O2       0.82680    0.43850    0.43850   1.00
O2       0.93850    0.39150    0.50320   1.00
O2       1.00320    0.39150    0.43850   1.00
O2       0.93850    0.32680    0.43850   1.00
O2       0.93850    0.50320    0.39150   1.00
O2       1.00320    0.43850    0.39150   1.00
O2       0.93850    0.43850    0.32680   1.00
O2       0.82680    0.39150    0.39150   1.00
O2       0.89150    0.32680    0.39150   1.00
O2       0.89150    0.39150    0.32680   1.00
C1       0.91500    0.41500    0.52020   1.00
C1       0.91500    0.52020    0.41500   1.00
C1       0.80980    0.41500    0.41500   1.00
C1       1.02020    0.41500    0.41500   1.00
C1       0.91500    0.30980    0.41500   1.00
C1       0.91500    0.41500    0.30980   1.00
O1       0.41500    0.41500    0.41500   1.00
Zn1      0.44780    0.38220    0.38220   1.00
Zn1      0.38220    0.44780    0.38220   1.00
Zn1      0.38220    0.38220    0.44780   1.00
Zn1      0.44780    0.44780    0.44780   1.00
O2       0.43850    0.39150    0.32680   1.00
O2       0.43850    0.32680    0.39150   1.00
O2       0.50320    0.39150    0.39150   1.00
O2       0.39150    0.43850    0.32680   1.00
O2       0.32680    0.43850    0.39150   1.00
O2       0.39150    0.50320    0.39150   1.00
O2       0.39150    0.32680    0.43850   1.00
O2       0.32680    0.39150    0.43850   1.00
O2       0.39150    0.39150    0.50320   1.00
O2       0.50320    0.43850    0.43850   1.00
O2       0.43850    0.50320    0.43850   1.00
O2       0.43850    0.43850    0.50320   1.00
C1       0.41500    0.41500    0.30980   1.00
C1       0.41500    0.30980    0.41500   1.00
C1       0.52020    0.41500    0.41500   1.00
C1       0.30980    0.41500    0.41500   1.00
C1       0.41500    0.52020    0.41500   1.00
C1       0.41500    0.41500    0.52020   1.00
O1       0.91500    0.91500    0.41500   1.00
Zn1      0.94780    0.88220    0.38220   1.00
Zn1      0.88220    0.94780    0.38220   1.00
Zn1      0.88220    0.88220    0.44780   1.00
Zn1      0.94780    0.94780    0.44780   1.00
O2       0.93850    0.89150    0.32680   1.00
O2       0.93850    0.82680    0.39150   1.00
O2       1.00320    0.89150    0.39150   1.00
O2       0.89150    0.93850    0.32680   1.00
O2       0.82680    0.93850    0.39150   1.00
O2       0.89150    1.00320    0.39150   1.00
O2       0.89150    0.82680    0.43850   1.00
O2       0.82680    0.89150    0.43850   1.00
O2       0.89150    0.89150    0.50320   1.00
O2       1.00320    0.93850    0.43850   1.00
O2       0.93850    1.00320    0.43850   1.00
O2       0.93850    0.93850    0.50320   1.00
C1       0.91500    0.91500    0.30980   1.00
C1       0.91500    0.80980    0.41500   1.00
C1       1.02020    0.91500    0.41500   1.00
C1       0.80980    0.91500    0.41500   1.00
C1       0.91500    1.02020    0.41500   1.00
C1       0.91500    0.91500    0.52020   1.00
O1       0.91500    0.41500    0.91500   1.00
Zn1      0.94780    0.38220    0.88220   1.00
Zn1      0.88220    0.44780    0.88220   1.00
Zn1      0.88220    0.38220    0.94780   1.00
Zn1      0.94780    0.44780    0.94780   1.00
O2       0.93850    0.39150    0.82680   1.00
O2       0.93850    0.32680    0.89150   1.00
O2       1.00320    0.39150    0.89150   1.00
O2       0.89150    0.43850    0.82680   1.00
O2       0.82680    0.43850    0.89150   1.00
O2       0.89150    0.50320    0.89150   1.00
O2       0.89150    0.32680    0.93850   1.00
O2       0.82680    0.39150    0.93850   1.00
O2       0.89150    0.39150    1.00320   1.00
O2       1.00320    0.43850    0.93850   1.00
O2       0.93850    0.50320    0.93850   1.00
O2       0.93850    0.43850    1.00320   1.00
C1       0.91500    0.41500    0.80980   1.00
C1       0.91500    0.30980    0.91500   1.00
C1       1.02020    0.41500    0.91500   1.00
C1       0.80980    0.41500    0.91500   1.00
C1       0.91500    0.52020    0.91500   1.00
C1       0.91500    0.41500    1.02020   1.00
O1       0.41500    0.91500    0.91500   1.00
Zn1      0.44780    0.88220    0.88220   1.00
Zn1      0.38220    0.94780    0.88220   1.00
Zn1      0.38220    0.88220    0.94780   1.00
Zn1      0.44780    0.94780    0.94780   1.00
O2       0.43850    0.89150    0.82680   1.00
O2       0.43850    0.82680    0.89150   1.00
O2       0.50320    0.89150    0.89150   1.00
O2       0.39150    0.93850    0.82680   1.00
O2       0.32680    0.93850    0.89150   1.00
O2       0.39150    1.00320    0.89150   1.00
O2       0.39150    0.82680    0.93850   1.00
O2       0.32680    0.89150    0.93850   1.00
O2       0.39150    0.89150    1.00320   1.00
O2       0.50320    0.93850    0.93850   1.00
O2       0.43850    1.00320    0.93850   1.00
O2       0.43850    0.93850    1.00320   1.00
C1       0.41500    0.91500    0.80980   1.00
C1       0.41500    0.80980    0.91500   1.00
C1       0.52020    0.91500    0.91500   1.00
C1       0.30980    0.91500    0.91500   1.00
C1       0.41500    1.02020    0.91500   1.00
C1       0.41500    0.91500    1.02020   1.00
C4       0.75038    0.75004    0.97915   1.00
C4       0.74962    0.74996    1.02085   1.00
C3       0.76635    0.71868    0.95751   1.00
C3       0.74125    0.71584    1.04252   1.00
C3       0.73434    0.78127    0.95738   1.00
C3       0.75811    0.78404    1.04259   1.00
C2       0.75002    0.74984    0.89482   1.00
C2       0.75002    0.74984    1.10518   1.00
C3a      0.76626    0.71845    0.91599   1.00
C3       0.74145    0.71586    1.08382   1.00
C3       0.73419    0.78110    0.91611   1.00
C3a      0.75834    0.78418    1.08403   1.00
H1       0.77927    0.69435    0.97294   1.00
H1       0.73414    0.68897    1.02750   1.00
C5       0.78370    0.68463    0.89410   1.00
H1       0.73485    0.68914    1.09933   1.00
H1       0.72136    0.80542    0.90056   1.00
C5       0.76757    0.82146    1.10535   1.00
H1       0.76580    0.81067    1.02747   1.00
H1       0.72105    0.80573    0.97230   1.00
H2       0.74465    0.84332    1.09837   1.00
H2       0.76704    0.81697    1.13747   1.00
N1       0.80601    0.83611    1.09395   1.00
C6       0.81663    0.84817    1.05810   1.00
C6       0.83712    0.84037    1.11757   1.00
C6       0.85506    0.86011    1.05873   1.00
C6       0.86809    0.85514    1.09656   1.00
H3       0.79768    0.84837    1.03281   1.00
H3       0.83742    0.83306    1.14831   1.00
H3       0.87171    0.87125    1.03436   1.00
H3       0.89693    0.86159    1.10758   1.00
H2       0.78019    0.68979    0.86228   1.00
H2       0.81546    0.68199    0.90001   1.00
N1       0.76447    0.64830    0.90523   1.00
C6       0.74308    0.62262    0.88078   1.00
C6       0.76341    0.63098    0.94285   1.00
C6       0.72985    0.59157    0.90277   1.00
C6       0.74232    0.59671    0.94091   1.00
H3       0.73801    0.62699    0.84992   1.00
H3       0.77675    0.64317    0.96876   1.00
H3       0.71263    0.56741    0.89205   1.00
H3       0.73646    0.57727    0.96505   1.00
C4       0.75004    0.97915    0.75038   1.00
C4       0.74996    1.02085    0.74962   1.00
C3       0.71868    0.95751    0.76635   1.00
C3       0.71584    1.04252    0.74125   1.00
C3       0.78127    0.95738    0.73434   1.00
C3       0.78404    1.04259    0.75811   1.00
C2       0.74984    0.89482    0.75002   1.00
C2       0.74984    1.10518    0.75002   1.00
C3a      0.71845    0.91599    0.76626   1.00
C3       0.71586    1.08382    0.74145   1.00
C3       0.78110    0.91611    0.73419   1.00
C3a      0.78418    1.08403    0.75834   1.00
H1       0.69435    0.97294    0.77927   1.00
H1       0.68897    1.02750    0.73414   1.00
C5       0.68463    0.89410    0.78370   1.00
H1       0.68914    1.09933    0.73485   1.00
H1       0.80542    0.90056    0.72136   1.00
C5       0.82146    1.10535    0.76757   1.00
H1       0.81067    1.02747    0.76580   1.00
H1       0.80573    0.97230    0.72105   1.00
H2       0.84332    1.09837    0.74465   1.00
H2       0.81697    1.13747    0.76704   1.00
N1       0.83611    1.09395    0.80601   1.00
C6       0.84817    1.05810    0.81663   1.00
C6       0.84037    1.11757    0.83712   1.00
C6       0.86011    1.05873    0.85506   1.00
C6       0.85514    1.09656    0.86809   1.00
H3       0.84837    1.03281    0.79768   1.00
H3       0.83306    1.14831    0.83742   1.00
H3       0.87125    1.03436    0.87171   1.00
H3       0.86159    1.10758    0.89693   1.00
H2       0.68979    0.86228    0.78019   1.00
H2       0.68199    0.90001    0.81546   1.00
N1       0.64830    0.90523    0.76447   1.00
C6       0.62262    0.88078    0.74308   1.00
C6       0.63098    0.94285    0.76341   1.00
C6       0.59157    0.90277    0.72985   1.00
C6       0.59671    0.94091    0.74232   1.00
H3       0.62699    0.84992    0.73801   1.00
H3       0.64317    0.96876    0.77675   1.00
H3       0.56741    0.89205    0.71263   1.00
H3       0.57727    0.96505    0.73646   1.00
C4       0.52085    0.75038    0.74996   1.00
C4       0.47915    0.74962    0.75004   1.00
C3       0.54249    0.76635    0.78132   1.00
C3       0.45748    0.74125    0.78416   1.00
C3       0.54262    0.73434    0.71873   1.00
C3       0.45741    0.75811    0.71596   1.00
C2       0.60518    0.75002    0.75016   1.00
C2       0.39482    0.75002    0.75016   1.00
C3a      0.58401    0.76626    0.78155   1.00
C3       0.41618    0.74145    0.78414   1.00
C3       0.58389    0.73419    0.71890   1.00
C3a      0.41597    0.75834    0.71582   1.00
H1       0.52706    0.77927    0.80565   1.00
H1       0.47250    0.73414    0.81103   1.00
C5       0.60590    0.78370    0.81537   1.00
H1       0.40067    0.73485    0.81086   1.00
H1       0.59944    0.72136    0.69458   1.00
C5       0.39465    0.76757    0.67854   1.00
H1       0.47253    0.76580    0.68933   1.00
H1       0.52770    0.72105    0.69427   1.00
H2       0.40163    0.74465    0.65668   1.00
H2       0.36253    0.76704    0.68303   1.00
N1       0.40605    0.80601    0.66389   1.00
C6       0.44190    0.81663    0.65183   1.00
C6       0.38243    0.83712    0.65963   1.00
C6       0.44127    0.85506    0.63989   1.00
C6       0.40344    0.86809    0.64486   1.00
H3       0.46719    0.79768    0.65163   1.00
H3       0.35169    0.83742    0.66694   1.00
H3       0.46564    0.87171    0.62875   1.00
H3       0.39242    0.89693    0.63841   1.00
H2       0.63772    0.78019    0.81021   1.00
H2       0.59999    0.81546    0.81801   1.00
N1       0.59477    0.76447    0.85170   1.00
C6       0.61922    0.74308    0.87738   1.00
C6       0.55715    0.76341    0.86902   1.00
C6       0.59723    0.72985    0.90843   1.00
C6       0.55909    0.74232    0.90329   1.00
H3       0.65008    0.73801    0.87301   1.00
H3       0.53124    0.77675    0.85683   1.00
H3       0.60795    0.71263    0.93259   1.00
H3       0.53495    0.73646    0.92273   1.00
C4       0.97915    0.75038    0.75004   1.00
C4       1.02085    0.74962    0.74996   1.00
C3       0.95751    0.76635    0.71868   1.00
C3       1.04252    0.74125    0.71584   1.00
C3       0.95738    0.73434    0.78127   1.00
C3       1.04259    0.75811    0.78404   1.00
C2       0.89482    0.75002    0.74984   1.00
C2       1.10518    0.75002    0.74984   1.00
C3a      0.91599    0.76626    0.71845   1.00
C3       1.08382    0.74145    0.71586   1.00
C3       0.91611    0.73419    0.78110   1.00
C3a      1.08403    0.75834    0.78418   1.00
H1       0.97294    0.77927    0.69435   1.00
H1       1.02750    0.73414    0.68897   1.00
C5       0.89410    0.78370    0.68463   1.00
H1       1.09933    0.73485    0.68914   1.00
H1       0.90056    0.72136    0.80542   1.00
C5       1.10535    0.76757    0.82146   1.00
H1       1.02747    0.76580    0.81067   1.00
H1       0.97230    0.72105    0.80573   1.00
H2       1.09837    0.74465    0.84332   1.00
H2       1.13747    0.76704    0.81697   1.00
N1       1.09395    0.80601    0.83611   1.00
C6       1.05810    0.81663    0.84817   1.00
C6       1.11757    0.83712    0.84037   1.00
C6       1.05873    0.85506    0.86011   1.00
C6       1.09656    0.86809    0.85514   1.00
H3       1.03281    0.79768    0.84837   1.00
H3       1.14831    0.83742    0.83306   1.00
H3       1.03436    0.87171    0.87125   1.00
H3       1.10758    0.89693    0.86159   1.00
H2       0.86228    0.78019    0.68979   1.00
H2       0.90001    0.81546    0.68199   1.00
N1       0.90523    0.76447    0.64830   1.00
C6       0.88078    0.74308    0.62262   1.00
C6       0.94285    0.76341    0.63098   1.00
C6       0.90277    0.72985    0.59157   1.00
C6       0.94091    0.74232    0.59671   1.00
H3       0.84992    0.73801    0.62699   1.00
H3       0.96876    0.77675    0.64317   1.00
H3       0.89205    0.71263    0.56741   1.00
H3       0.96505    0.73646    0.57727   1.00
C4       0.74996    0.52085    0.75038   1.00
C4       0.75004    0.47915    0.74962   1.00
C3       0.78132    0.54249    0.76635   1.00
C3       0.78416    0.45748    0.74125   1.00
C3       0.71873    0.54262    0.73434   1.00
C3       0.71596    0.45741    0.75811   1.00
C2       0.75016    0.60518    0.75002   1.00
C2       0.75016    0.39482    0.75002   1.00
C3a      0.78155    0.58401    0.76626   1.00
C3       0.78414    0.41618    0.74145   1.00
C3       0.71890    0.58389    0.73419   1.00
C3a      0.71582    0.41597    0.75834   1.00
H1       0.80565    0.52706    0.77927   1.00
H1       0.81103    0.47250    0.73414   1.00
C5       0.81537    0.60590    0.78370   1.00
H1       0.81086    0.40067    0.73485   1.00
H1       0.69458    0.59944    0.72136   1.00
C5       0.67854    0.39465    0.76757   1.00
H1       0.68933    0.47253    0.76580   1.00
H1       0.69427    0.52770    0.72105   1.00
H2       0.65668    0.40163    0.74465   1.00
H2       0.68303    0.36253    0.76704   1.00
N1       0.66389    0.40605    0.80601   1.00
C6       0.65183    0.44190    0.81663   1.00
C6       0.65963    0.38243    0.83712   1.00
C6       0.63989    0.44127    0.85506   1.00
C6       0.64486    0.40344    0.86809   1.00
H3       0.65163    0.46719    0.79768   1.00
H3       0.66694    0.35169    0.83742   1.00
H3       0.62875    0.46564    0.87171   1.00
H3       0.63841    0.39242    0.89693   1.00
H2       0.81021    0.63772    0.78019   1.00
H2       0.81801    0.59999    0.81546   1.00
N1       0.85170    0.59477    0.76447   1.00
C6       0.87738    0.61922    0.74308   1.00
C6       0.86902    0.55715    0.76341   1.00
C6       0.90843    0.59723    0.72985   1.00
C6       0.90329    0.55909    0.74232   1.00
H3       0.87301    0.65008    0.73801   1.00
H3       0.85683    0.53124    0.77675   1.00
H3       0.93259    0.60795    0.71263   1.00
H3       0.92273    0.53495    0.73646   1.00
C4       0.75038    0.74996    0.52085   1.00
C4       0.74962    0.75004    0.47915   1.00
C3       0.76635    0.78132    0.54249   1.00
C3       0.74125    0.78416    0.45748   1.00
C3       0.73434    0.71873    0.54262   1.00
C3       0.75811    0.71596    0.45741   1.00
C2       0.75002    0.75016    0.60518   1.00
C2       0.75002    0.75016    0.39482   1.00
C3a      0.76626    0.78155    0.58401   1.00
C3       0.74145    0.78414    0.41618   1.00
C3       0.73419    0.71890    0.58389   1.00
C3a      0.75834    0.71582    0.41597   1.00
H1       0.77927    0.80565    0.52706   1.00
H1       0.73414    0.81103    0.47250   1.00
C5       0.78370    0.81537    0.60590   1.00
H1       0.73485    0.81086    0.40067   1.00
H1       0.72136    0.69458    0.59944   1.00
C5       0.76757    0.67854    0.39465   1.00
H1       0.76580    0.68933    0.47253   1.00
H1       0.72105    0.69427    0.52770   1.00
H2       0.74465    0.65668    0.40163   1.00
H2       0.76704    0.68303    0.36253   1.00
N1       0.80601    0.66389    0.40605   1.00
C6       0.81663    0.65183    0.44190   1.00
C6       0.83712    0.65963    0.38243   1.00
C6       0.85506    0.63989    0.44127   1.00
C6       0.86809    0.64486    0.40344   1.00
H3       0.79768    0.65163    0.46719   1.00
H3       0.83742    0.66694    0.35169   1.00
H3       0.87171    0.62875    0.46564   1.00
H3       0.89693    0.63841    0.39242   1.00
H2       0.78019    0.81021    0.63772   1.00
H2       0.81546    0.81801    0.59999   1.00
N1       0.76447    0.85170    0.59477   1.00
C6       0.74308    0.87738    0.61922   1.00
C6       0.76341    0.86902    0.55715   1.00
C6       0.72985    0.90843    0.59723   1.00
C6       0.74232    0.90329    0.55909   1.00
H3       0.73801    0.87301    0.65008   1.00
H3       0.77675    0.85683    0.53124   1.00
H3       0.71263    0.93259    0.60795   1.00
H3       0.73646    0.92273    0.53495   1.00
C4       0.25038    0.25004    0.97915   1.00
C4       0.24962    0.24996    1.02085   1.00
C3       0.26635    0.21868    0.95751   1.00
C3       0.24125    0.21584    1.04252   1.00
C3       0.23434    0.28127    0.95738   1.00
C3       0.25811    0.28404    1.04259   1.00
C2       0.25002    0.24984    0.89482   1.00
C2       0.25002    0.24984    1.10518   1.00
C3a      0.26626    0.21845    0.91599   1.00
C3       0.24145    0.21586    1.08382   1.00
C3       0.23419    0.28110    0.91611   1.00
C3a      0.25834    0.28418    1.08403   1.00
H1       0.27927    0.19435    0.97294   1.00
H1       0.23414    0.18897    1.02750   1.00
C5       0.28370    0.18463    0.89410   1.00
H1       0.23485    0.18914    1.09933   1.00
H1       0.22136    0.30542    0.90056   1.00
C5       0.26757    0.32146    1.10535   1.00
H1       0.26580    0.31067    1.02747   1.00
H1       0.22105    0.30573    0.97230   1.00
H2       0.24465    0.34332    1.09837   1.00
H2       0.26704    0.31697    1.13747   1.00
N1       0.30601    0.33611    1.09395   1.00
C6       0.31663    0.34817    1.05810   1.00
C6       0.33712    0.34037    1.11757   1.00
C6       0.35506    0.36011    1.05873   1.00
C6       0.36809    0.35514    1.09656   1.00
H3       0.29768    0.34837    1.03281   1.00
H3       0.33742    0.33306    1.14831   1.00
H3       0.37171    0.37125    1.03436   1.00
H3       0.39693    0.36159    1.10758   1.00
H2       0.28019    0.18979    0.86228   1.00
H2       0.31546    0.18199    0.90001   1.00
N1       0.26447    0.14830    0.90523   1.00
C6       0.24308    0.12262    0.88078   1.00
C6       0.26341    0.13098    0.94285   1.00
C6       0.22985    0.09157    0.90277   1.00
C6       0.24232    0.09671    0.94091   1.00
H3       0.23801    0.12699    0.84992   1.00
H3       0.27675    0.14317    0.96876   1.00
H3       0.21263    0.06741    0.89205   1.00
H3       0.23646    0.07727    0.96505   1.00
C4       0.25004    0.47915    0.75038   1.00
C4       0.24996    0.52085    0.74962   1.00
C3       0.21868    0.45751    0.76635   1.00
C3       0.21584    0.54252    0.74125   1.00
C3       0.28127    0.45738    0.73434   1.00
C3       0.28404    0.54259    0.75811   1.00
C2       0.24984    0.39482    0.75002   1.00
C2       0.24984    0.60518    0.75002   1.00
C3a      0.21845    0.41599    0.76626   1.00
C3       0.21586    0.58382    0.74145   1.00
C3       0.28110    0.41611    0.73419   1.00
C3a      0.28418    0.58403    0.75834   1.00
H1       0.19435    0.47294    0.77927   1.00
H1       0.18897    0.52750    0.73414   1.00
C5       0.18463    0.39410    0.78370   1.00
H1       0.18914    0.59933    0.73485   1.00
H1       0.30542    0.40056    0.72136   1.00
C5       0.32146    0.60535    0.76757   1.00
H1       0.31067    0.52747    0.76580   1.00
H1       0.30573    0.47230    0.72105   1.00
H2       0.34332    0.59837    0.74465   1.00
H2       0.31697    0.63747    0.76704   1.00
N1       0.33611    0.59395    0.80601   1.00
C6       0.34817    0.55810    0.81663   1.00
C6       0.34037    0.61757    0.83712   1.00
C6       0.36011    0.55873    0.85506   1.00
C6       0.35514    0.59656    0.86809   1.00
H3       0.34837    0.53281    0.79768   1.00
H3       0.33306    0.64831    0.83742   1.00
H3       0.37125    0.53436    0.87171   1.00
H3       0.36159    0.60758    0.89693   1.00
H2       0.18979    0.36228    0.78019   1.00
H2       0.18199    0.40001    0.81546   1.00
N1       0.14830    0.40523    0.76447   1.00
C6       0.12262    0.38078    0.74308   1.00
C6       0.13098    0.44285    0.76341   1.00
C6       0.09157    0.40277    0.72985   1.00
C6       0.09671    0.44091    0.74232   1.00
H3       0.12699    0.34992    0.73801   1.00
H3       0.14317    0.46876    0.77675   1.00
H3       0.06741    0.39205    0.71263   1.00
H3       0.07727    0.46505    0.73646   1.00
C4       0.02085    0.25038    0.74996   1.00
C4       -0.02085   0.24962    0.75004   1.00
C3       0.04249    0.26635    0.78132   1.00
C3       -0.04252   0.24125    0.78416   1.00
C3       0.04262    0.23434    0.71873   1.00
C3       -0.04259   0.25811    0.71596   1.00
C2       0.10518    0.25002    0.75016   1.00
C2       -0.10518   0.25002    0.75016   1.00
C3a      0.08401    0.26626    0.78155   1.00
C3       -0.08382   0.24145    0.78414   1.00
C3       0.08389    0.23419    0.71890   1.00
C3a      -0.08403   0.25834    0.71582   1.00
H1       0.02706    0.27927    0.80565   1.00
H1       -0.02750   0.23414    0.81103   1.00
C5       0.10590    0.28370    0.81537   1.00
H1       -0.09933   0.23485    0.81086   1.00
H1       0.09944    0.22136    0.69458   1.00
C5       -0.10535   0.26757    0.67854   1.00
H1       -0.02747   0.26580    0.68933   1.00
H1       0.02770    0.22105    0.69427   1.00
H2       -0.09837   0.24465    0.65668   1.00
H2       -0.13747   0.26704    0.68303   1.00
N1       -0.09395   0.30601    0.66389   1.00
C6       -0.05810   0.31663    0.65183   1.00
C6       -0.11757   0.33712    0.65963   1.00
C6       -0.05873   0.35506    0.63989   1.00
C6       -0.09656   0.36809    0.64486   1.00
H3       -0.03281   0.29768    0.65163   1.00
H3       -0.14831   0.33742    0.66694   1.00
H3       -0.03436   0.37171    0.62875   1.00
H3       -0.10758   0.39693    0.63841   1.00
H2       0.13772    0.28019    0.81021   1.00
H2       0.09999    0.31546    0.81801   1.00
N1       0.09477    0.26447    0.85170   1.00
C6       0.11922    0.24308    0.87738   1.00
C6       0.05715    0.26341    0.86902   1.00
C6       0.09723    0.22985    0.90843   1.00
C6       0.05909    0.24232    0.90329   1.00
H3       0.15008    0.23801    0.87301   1.00
H3       0.03124    0.27675    0.85683   1.00
H3       0.10795    0.21263    0.93259   1.00
H3       0.03495    0.23646    0.92273   1.00
C4       0.47915    0.25038    0.75004   1.00
C4       0.52085    0.24962    0.74996   1.00
C3       0.45751    0.26635    0.71868   1.00
C3       0.54252    0.24125    0.71584   1.00
C3       0.45738    0.23434    0.78127   1.00
C3       0.54259    0.25811    0.78404   1.00
C2       0.39482    0.25002    0.74984   1.00
C2       0.60518    0.25002    0.74984   1.00
C3a      0.41599    0.26626    0.71845   1.00
C3       0.58382    0.24145    0.71586   1.00
C3       0.41611    0.23419    0.78110   1.00
C3a      0.58403    0.25834    0.78418   1.00
H1       0.47294    0.27927    0.69435   1.00
H1       0.52750    0.23414    0.68897   1.00
C5       0.39410    0.28370    0.68463   1.00
H1       0.59933    0.23485    0.68914   1.00
H1       0.40056    0.22136    0.80542   1.00
C5       0.60535    0.26757    0.82146   1.00
H1       0.52747    0.26580    0.81067   1.00
H1       0.47230    0.22105    0.80573   1.00
H2       0.59837    0.24465    0.84332   1.00
H2       0.63747    0.26704    0.81697   1.00
N1       0.59395    0.30601    0.83611   1.00
C6       0.55810    0.31663    0.84817   1.00
C6       0.61757    0.33712    0.84037   1.00
C6       0.55873    0.35506    0.86011   1.00
C6       0.59656    0.36809    0.85514   1.00
H3       0.53281    0.29768    0.84837   1.00
H3       0.64831    0.33742    0.83306   1.00
H3       0.53436    0.37171    0.87125   1.00
H3       0.60758    0.39693    0.86159   1.00
H2       0.36228    0.28019    0.68979   1.00
H2       0.40001    0.31546    0.68199   1.00
N1       0.40523    0.26447    0.64830   1.00
C6       0.38078    0.24308    0.62262   1.00
C6       0.44285    0.26341    0.63098   1.00
C6       0.40277    0.22985    0.59157   1.00
C6       0.44091    0.24232    0.59671   1.00
H3       0.34992    0.23801    0.62699   1.00
H3       0.46876    0.27675    0.64317   1.00
H3       0.39205    0.21263    0.56741   1.00
H3       0.46505    0.23646    0.57727   1.00
C4       0.24996    0.02085    0.75038   1.00
C4       0.25004    -0.02085   0.74962   1.00
C3       0.28132    0.04249    0.76635   1.00
C3       0.28416    -0.04252   0.74125   1.00
C3       0.21873    0.04262    0.73434   1.00
C3       0.21596    -0.04259   0.75811   1.00
C2       0.25016    0.10518    0.75002   1.00
C2       0.25016    -0.10518   0.75002   1.00
C3a      0.28155    0.08401    0.76626   1.00
C3       0.28414    -0.08382   0.74145   1.00
C3       0.21890    0.08389    0.73419   1.00
C3a      0.21582    -0.08403   0.75834   1.00
H1       0.30565    0.02706    0.77927   1.00
H1       0.31103    -0.02750   0.73414   1.00
C5       0.31537    0.10590    0.78370   1.00
H1       0.31086    -0.09933   0.73485   1.00
H1       0.19458    0.09944    0.72136   1.00
C5       0.17854    -0.10535   0.76757   1.00
H1       0.18933    -0.02747   0.76580   1.00
H1       0.19427    0.02770    0.72105   1.00
H2       0.15668    -0.09837   0.74465   1.00
H2       0.18303    -0.13747   0.76704   1.00
N1       0.16389    -0.09395   0.80601   1.00
C6       0.15183    -0.05810   0.81663   1.00
C6       0.15963    -0.11757   0.83712   1.00
C6       0.13989    -0.05873   0.85506   1.00
C6       0.14486    -0.09656   0.86809   1.00
H3       0.15163    -0.03281   0.79768   1.00
H3       0.16694    -0.14831   0.83742   1.00
H3       0.12875    -0.03436   0.87171   1.00
H3       0.13841    -0.10758   0.89693   1.00
H2       0.31021    0.13772    0.78019   1.00
H2       0.31801    0.09999    0.81546   1.00
N1       0.35170    0.09477    0.76447   1.00
C6       0.37738    0.11922    0.74308   1.00
C6       0.36902    0.05715    0.76341   1.00
C6       0.40843    0.09723    0.72985   1.00
C6       0.40329    0.05909    0.74232   1.00
H3       0.37301    0.15008    0.73801   1.00
H3       0.35683    0.03124    0.77675   1.00
H3       0.43259    0.10795    0.71263   1.00
H3       0.42273    0.03495    0.73646   1.00
C4       0.25038    0.24996    0.52085   1.00
C4       0.24962    0.25004    0.47915   1.00
C3       0.26635    0.28132    0.54249   1.00
C3       0.24125    0.28416    0.45748   1.00
C3       0.23434    0.21873    0.54262   1.00
C3       0.25811    0.21596    0.45741   1.00
C2       0.25002    0.25016    0.60518   1.00
C2       0.25002    0.25016    0.39482   1.00
C3a      0.26626    0.28155    0.58401   1.00
C3       0.24145    0.28414    0.41618   1.00
C3       0.23419    0.21890    0.58389   1.00
C3a      0.25834    0.21582    0.41597   1.00
H1       0.27927    0.30565    0.52706   1.00
H1       0.23414    0.31103    0.47250   1.00
C5       0.28370    0.31537    0.60590   1.00
H1       0.23485    0.31086    0.40067   1.00
H1       0.22136    0.19458    0.59944   1.00
C5       0.26757    0.17854    0.39465   1.00
H1       0.26580    0.18933    0.47253   1.00
H1       0.22105    0.19427    0.52770   1.00
H2       0.24465    0.15668    0.40163   1.00
H2       0.26704    0.18303    0.36253   1.00
N1       0.30601    0.16389    0.40605   1.00
C6       0.31663    0.15183    0.44190   1.00
C6       0.33712    0.15963    0.38243   1.00
C6       0.35506    0.13989    0.44127   1.00
C6       0.36809    0.14486    0.40344   1.00
H3       0.29768    0.15163    0.46719   1.00
H3       0.33742    0.16694    0.35169   1.00
H3       0.37171    0.12875    0.46564   1.00
H3       0.39693    0.13841    0.39242   1.00
H2       0.28019    0.31021    0.63772   1.00
H2       0.31546    0.31801    0.59999   1.00
N1       0.26447    0.35170    0.59477   1.00
C6       0.24308    0.37738    0.61922   1.00
C6       0.26341    0.36902    0.55715   1.00
C6       0.22985    0.40843    0.59723   1.00
C6       0.24232    0.40329    0.55909   1.00
H3       0.23801    0.37301    0.65008   1.00
H3       0.27675    0.35683    0.53124   1.00
H3       0.21263    0.43259    0.60795   1.00
H3       0.23646    0.42273    0.53495   1.00
C4       0.25038    0.75004    0.47915   1.00
C4       0.24962    0.74996    0.52085   1.00
C3       0.26635    0.71868    0.45751   1.00
C3       0.24125    0.71584    0.54252   1.00
C3       0.23434    0.78127    0.45738   1.00
C3       0.25811    0.78404    0.54259   1.00
C2       0.25002    0.74984    0.39482   1.00
C2       0.25002    0.74984    0.60518   1.00
C3a      0.26626    0.71845    0.41599   1.00
C3       0.24145    0.71586    0.58382   1.00
C3       0.23419    0.78110    0.41611   1.00
C3a      0.25834    0.78418    0.58403   1.00
H1       0.27927    0.69435    0.47294   1.00
H1       0.23414    0.68897    0.52750   1.00
C5       0.28370    0.68463    0.39410   1.00
H1       0.23485    0.68914    0.59933   1.00
H1       0.22136    0.80542    0.40056   1.00
C5       0.26757    0.82146    0.60535   1.00
H1       0.26580    0.81067    0.52747   1.00
H1       0.22105    0.80573    0.47230   1.00
H2       0.24465    0.84332    0.59837   1.00
H2       0.26704    0.81697    0.63747   1.00
N1       0.30601    0.83611    0.59395   1.00
C6       0.31663    0.84817    0.55810   1.00
C6       0.33712    0.84037    0.61757   1.00
C6       0.35506    0.86011    0.55873   1.00
C6       0.36809    0.85514    0.59656   1.00
H3       0.29768    0.84837    0.53281   1.00
H3       0.33742    0.83306    0.64831   1.00
H3       0.37171    0.87125    0.53436   1.00
H3       0.39693    0.86159    0.60758   1.00
H2       0.28019    0.68979    0.36228   1.00
H2       0.31546    0.68199    0.40001   1.00
N1       0.26447    0.64830    0.40523   1.00
C6       0.24308    0.62262    0.38078   1.00
C6       0.26341    0.63098    0.44285   1.00
C6       0.22985    0.59157    0.40277   1.00
C6       0.24232    0.59671    0.44091   1.00
H3       0.23801    0.62699    0.34992   1.00
H3       0.27675    0.64317    0.46876   1.00
H3       0.21263    0.56741    0.39205   1.00
H3       0.23646    0.57727    0.46505   1.00
C4       0.25004    0.97915    0.25038   1.00
C4       0.24996    1.02085    0.24962   1.00
C3       0.21868    0.95751    0.26635   1.00
C3       0.21584    1.04252    0.24125   1.00
C3       0.28127    0.95738    0.23434   1.00
C3       0.28404    1.04259    0.25811   1.00
C2       0.24984    0.89482    0.25002   1.00
C2       0.24984    1.10518    0.25002   1.00
C3a      0.21845    0.91599    0.26626   1.00
C3       0.21586    1.08382    0.24145   1.00
C3       0.28110    0.91611    0.23419   1.00
C3a      0.28418    1.08403    0.25834   1.00
H1       0.19435    0.97294    0.27927   1.00
H1       0.18897    1.02750    0.23414   1.00
C5       0.18463    0.89410    0.28370   1.00
H1       0.18914    1.09933    0.23485   1.00
H1       0.30542    0.90056    0.22136   1.00
C5       0.32146    1.10535    0.26757   1.00
H1       0.31067    1.02747    0.26580   1.00
H1       0.30573    0.97230    0.22105   1.00
H2       0.34332    1.09837    0.24465   1.00
H2       0.31697    1.13747    0.26704   1.00
N1       0.33611    1.09395    0.30601   1.00
C6       0.34817    1.05810    0.31663   1.00
C6       0.34037    1.11757    0.33712   1.00
C6       0.36011    1.05873    0.35506   1.00
C6       0.35514    1.09656    0.36809   1.00
H3       0.34837    1.03281    0.29768   1.00
H3       0.33306    1.14831    0.33742   1.00
H3       0.37125    1.03436    0.37171   1.00
H3       0.36159    1.10758    0.39693   1.00
H2       0.18979    0.86228    0.28019   1.00
H2       0.18199    0.90001    0.31546   1.00
N1       0.14830    0.90523    0.26447   1.00
C6       0.12262    0.88078    0.24308   1.00
C6       0.13098    0.94285    0.26341   1.00
C6       0.09157    0.90277    0.22985   1.00
C6       0.09671    0.94091    0.24232   1.00
H3       0.12699    0.84992    0.23801   1.00
H3       0.14317    0.96876    0.27675   1.00
H3       0.06741    0.89205    0.21263   1.00
H3       0.07727    0.96505    0.23646   1.00
C4       0.02085    0.75038    0.24996   1.00
C4       -0.02085   0.74962    0.25004   1.00
C3       0.04249    0.76635    0.28132   1.00
C3       -0.04252   0.74125    0.28416   1.00
C3       0.04262    0.73434    0.21873   1.00
C3       -0.04259   0.75811    0.21596   1.00
C2       0.10518    0.75002    0.25016   1.00
C2       -0.10518   0.75002    0.25016   1.00
C3a      0.08401    0.76626    0.28155   1.00
C3       -0.08382   0.74145    0.28414   1.00
C3       0.08389    0.73419    0.21890   1.00
C3a      -0.08403   0.75834    0.21582   1.00
H1       0.02706    0.77927    0.30565   1.00
H1       -0.02750   0.73414    0.31103   1.00
C5       0.10590    0.78370    0.31537   1.00
H1       -0.09933   0.73485    0.31086   1.00
H1       0.09944    0.72136    0.19458   1.00
C5       -0.10535   0.76757    0.17854   1.00
H1       -0.02747   0.76580    0.18933   1.00
H1       0.02770    0.72105    0.19427   1.00
H2       -0.09837   0.74465    0.15668   1.00
H2       -0.13747   0.76704    0.18303   1.00
N1       -0.09395   0.80601    0.16389   1.00
C6       -0.05810   0.81663    0.15183   1.00
C6       -0.11757   0.83712    0.15963   1.00
C6       -0.05873   0.85506    0.13989   1.00
C6       -0.09656   0.86809    0.14486   1.00
H3       -0.03281   0.79768    0.15163   1.00
H3       -0.14831   0.83742    0.16694   1.00
H3       -0.03436   0.87171    0.12875   1.00
H3       -0.10758   0.89693    0.13841   1.00
H2       0.13772    0.78019    0.31021   1.00
H2       0.09999    0.81546    0.31801   1.00
N1       0.09477    0.76447    0.35170   1.00
C6       0.11922    0.74308    0.37738   1.00
C6       0.05715    0.76341    0.36902   1.00
C6       0.09723    0.72985    0.40843   1.00
C6       0.05909    0.74232    0.40329   1.00
H3       0.15008    0.73801    0.37301   1.00
H3       0.03124    0.77675    0.35683   1.00
H3       0.10795    0.71263    0.43259   1.00
H3       0.03495    0.73646    0.42273   1.00
C4       0.47915    0.75038    0.25004   1.00
C4       0.52085    0.74962    0.24996   1.00
C3       0.45751    0.76635    0.21868   1.00
C3       0.54252    0.74125    0.21584   1.00
C3       0.45738    0.73434    0.28127   1.00
C3       0.54259    0.75811    0.28404   1.00
C2       0.39482    0.75002    0.24984   1.00
C2       0.60518    0.75002    0.24984   1.00
C3a      0.41599    0.76626    0.21845   1.00
C3       0.58382    0.74145    0.21586   1.00
C3       0.41611    0.73419    0.28110   1.00
C3a      0.58403    0.75834    0.28418   1.00
H1       0.47294    0.77927    0.19435   1.00
H1       0.52750    0.73414    0.18897   1.00
C5       0.39410    0.78370    0.18463   1.00
H1       0.59933    0.73485    0.18914   1.00
H1       0.40056    0.72136    0.30542   1.00
C5       0.60535    0.76757    0.32146   1.00
H1       0.52747    0.76580    0.31067   1.00
H1       0.47230    0.72105    0.30573   1.00
H2       0.59837    0.74465    0.34332   1.00
H2       0.63747    0.76704    0.31697   1.00
N1       0.59395    0.80601    0.33611   1.00
C6       0.55810    0.81663    0.34817   1.00
C6       0.61757    0.83712    0.34037   1.00
C6       0.55873    0.85506    0.36011   1.00
C6       0.59656    0.86809    0.35514   1.00
H3       0.53281    0.79768    0.34837   1.00
H3       0.64831    0.83742    0.33306   1.00
H3       0.53436    0.87171    0.37125   1.00
H3       0.60758    0.89693    0.36159   1.00
H2       0.36228    0.78019    0.18979   1.00
H2       0.40001    0.81546    0.18199   1.00
N1       0.40523    0.76447    0.14830   1.00
C6       0.38078    0.74308    0.12262   1.00
C6       0.44285    0.76341    0.13098   1.00
C6       0.40277    0.72985    0.09157   1.00
C6       0.44091    0.74232    0.09671   1.00
H3       0.34992    0.73801    0.12699   1.00
H3       0.46876    0.77675    0.14317   1.00
H3       0.39205    0.71263    0.06741   1.00
H3       0.46505    0.73646    0.07727   1.00
C4       0.24996    0.52085    0.25038   1.00
C4       0.25004    0.47915    0.24962   1.00
C3       0.28132    0.54249    0.26635   1.00
C3       0.28416    0.45748    0.24125   1.00
C3       0.21873    0.54262    0.23434   1.00
C3       0.21596    0.45741    0.25811   1.00
C2       0.25016    0.60518    0.25002   1.00
C2       0.25016    0.39482    0.25002   1.00
C3a      0.28155    0.58401    0.26626   1.00
C3       0.28414    0.41618    0.24145   1.00
C3       0.21890    0.58389    0.23419   1.00
C3a      0.21582    0.41597    0.25834   1.00
H1       0.30565    0.52706    0.27927   1.00
H1       0.31103    0.47250    0.23414   1.00
C5       0.31537    0.60590    0.28370   1.00
H1       0.31086    0.40067    0.23485   1.00
H1       0.19458    0.59944    0.22136   1.00
C5       0.17854    0.39465    0.26757   1.00
H1       0.18933    0.47253    0.26580   1.00
H1       0.19427    0.52770    0.22105   1.00
H2       0.15668    0.40163    0.24465   1.00
H2       0.18303    0.36253    0.26704   1.00
N1       0.16389    0.40605    0.30601   1.00
C6       0.15183    0.44190    0.31663   1.00
C6       0.15963    0.38243    0.33712   1.00
C6       0.13989    0.44127    0.35506   1.00
C6       0.14486    0.40344    0.36809   1.00
H3       0.15163    0.46719    0.29768   1.00
H3       0.16694    0.35169    0.33742   1.00
H3       0.12875    0.46564    0.37171   1.00
H3       0.13841    0.39242    0.39693   1.00
H2       0.31021    0.63772    0.28019   1.00
H2       0.31801    0.59999    0.31546   1.00
N1       0.35170    0.59477    0.26447   1.00
C6       0.37738    0.61922    0.24308   1.00
C6       0.36902    0.55715    0.26341   1.00
C6       0.40843    0.59723    0.22985   1.00
C6       0.40329    0.55909    0.24232   1.00
H3       0.37301    0.65008    0.23801   1.00
H3       0.35683    0.53124    0.27675   1.00
H3       0.43259    0.60795    0.21263   1.00
H3       0.42273    0.53495    0.23646   1.00
C4       0.25038    0.74996    0.02085   1.00
C4       0.24962    0.75004    -0.02085   1.00
C3       0.26635    0.78132    0.04249   1.00
C3       0.24125    0.78416    -0.04252   1.00
C3       0.23434    0.71873    0.04262   1.00
C3       0.25811    0.71596    -0.04259   1.00
C2       0.25002    0.75016    0.10518   1.00
C2       0.25002    0.75016    -0.10518   1.00
C3a      0.26626    0.78155    0.08401   1.00
C3       0.24145    0.78414    -0.08382   1.00
C3       0.23419    0.71890    0.08389   1.00
C3a      0.25834    0.71582    -0.08403   1.00
H1       0.27927    0.80565    0.02706   1.00
H1       0.23414    0.81103    -0.02750   1.00
C5       0.28370    0.81537    0.10590   1.00
H1       0.23485    0.81086    -0.09933   1.00
H1       0.22136    0.69458    0.09944   1.00
C5       0.26757    0.67854    -0.10535   1.00
H1       0.26580    0.68933    -0.02747   1.00
H1       0.22105    0.69427    0.02770   1.00
H2       0.24465    0.65668    -0.09837   1.00
H2       0.26704    0.68303    -0.13747   1.00
N1       0.30601    0.66389    -0.09395   1.00
C6       0.31663    0.65183    -0.05810   1.00
C6       0.33712    0.65963    -0.11757   1.00
C6       0.35506    0.63989    -0.05873   1.00
C6       0.36809    0.64486    -0.09656   1.00
H3       0.29768    0.65163    -0.03281   1.00
H3       0.33742    0.66694    -0.14831   1.00
H3       0.37171    0.62875    -0.03436   1.00
H3       0.39693    0.63841    -0.10758   1.00
H2       0.28019    0.81021    0.13772   1.00
H2       0.31546    0.81801    0.09999   1.00
N1       0.26447    0.85170    0.09477   1.00
C6       0.24308    0.87738    0.11922   1.00
C6       0.26341    0.86902    0.05715   1.00
C6       0.22985    0.90843    0.09723   1.00
C6       0.24232    0.90329    0.05909   1.00
H3       0.23801    0.87301    0.15008   1.00
H3       0.27675    0.85683    0.03124   1.00
H3       0.21263    0.93259    0.10795   1.00
H3       0.23646    0.92273    0.03495   1.00
C4       0.75038    0.25004    0.47915   1.00
C4       0.74962    0.24996    0.52085   1.00
C3       0.76635    0.21868    0.45751   1.00
C3       0.74125    0.21584    0.54252   1.00
C3       0.73434    0.28127    0.45738   1.00
C3       0.75811    0.28404    0.54259   1.00
C2       0.75002    0.24984    0.39482   1.00
C2       0.75002    0.24984    0.60518   1.00
C3a      0.76626    0.21845    0.41599   1.00
C3       0.74145    0.21586    0.58382   1.00
C3       0.73419    0.28110    0.41611   1.00
C3a      0.75834    0.28418    0.58403   1.00
H1       0.77927    0.19435    0.47294   1.00
H1       0.73414    0.18897    0.52750   1.00
C5       0.78370    0.18463    0.39410   1.00
H1       0.73485    0.18914    0.59933   1.00
H1       0.72136    0.30542    0.40056   1.00
C5       0.76757    0.32146    0.60535   1.00
H1       0.76580    0.31067    0.52747   1.00
H1       0.72105    0.30573    0.47230   1.00
H2       0.74465    0.34332    0.59837   1.00
H2       0.76704    0.31697    0.63747   1.00
N1       0.80601    0.33611    0.59395   1.00
C6       0.81663    0.34817    0.55810   1.00
C6       0.83712    0.34037    0.61757   1.00
C6       0.85506    0.36011    0.55873   1.00
C6       0.86809    0.35514    0.59656   1.00
H3       0.79768    0.34837    0.53281   1.00
H3       0.83742    0.33306    0.64831   1.00
H3       0.87171    0.37125    0.53436   1.00
H3       0.89693    0.36159    0.60758   1.00
H2       0.78019    0.18979    0.36228   1.00
H2       0.81546    0.18199    0.40001   1.00
N1       0.76447    0.14830    0.40523   1.00
C6       0.74308    0.12262    0.38078   1.00
C6       0.76341    0.13098    0.44285   1.00
C6       0.72985    0.09157    0.40277   1.00
C6       0.74232    0.09671    0.44091   1.00
H3       0.73801    0.12699    0.34992   1.00
H3       0.77675    0.14317    0.46876   1.00
H3       0.71263    0.06741    0.39205   1.00
H3       0.73646    0.07727    0.46505   1.00
C4       0.75004    0.47915    0.25038   1.00
C4       0.74996    0.52085    0.24962   1.00
C3       0.71868    0.45751    0.26635   1.00
C3       0.71584    0.54252    0.24125   1.00
C3       0.78127    0.45738    0.23434   1.00
C3       0.78404    0.54259    0.25811   1.00
C2       0.74984    0.39482    0.25002   1.00
C2       0.74984    0.60518    0.25002   1.00
C3a      0.71845    0.41599    0.26626   1.00
C3       0.71586    0.58382    0.24145   1.00
C3       0.78110    0.41611    0.23419   1.00
C3a      0.78418    0.58403    0.25834   1.00
H1       0.69435    0.47294    0.27927   1.00
H1       0.68897    0.52750    0.23414   1.00
C5       0.68463    0.39410    0.28370   1.00
H1       0.68914    0.59933    0.23485   1.00
H1       0.80542    0.40056    0.22136   1.00
C5       0.82146    0.60535    0.26757   1.00
H1       0.81067    0.52747    0.26580   1.00
H1       0.80573    0.47230    0.22105   1.00
H2       0.84332    0.59837    0.24465   1.00
H2       0.81697    0.63747    0.26704   1.00
N1       0.83611    0.59395    0.30601   1.00
C6       0.84817    0.55810    0.31663   1.00
C6       0.84037    0.61757    0.33712   1.00
C6       0.86011    0.55873    0.35506   1.00
C6       0.85514    0.59656    0.36809   1.00
H3       0.84837    0.53281    0.29768   1.00
H3       0.83306    0.64831    0.33742   1.00
H3       0.87125    0.53436    0.37171   1.00
H3       0.86159    0.60758    0.39693   1.00
H2       0.68979    0.36228    0.28019   1.00
H2       0.68199    0.40001    0.31546   1.00
N1       0.64830    0.40523    0.26447   1.00
C6       0.62262    0.38078    0.24308   1.00
C6       0.63098    0.44285    0.26341   1.00
C6       0.59157    0.40277    0.22985   1.00
C6       0.59671    0.44091    0.24232   1.00
H3       0.62699    0.34992    0.23801   1.00
H3       0.64317    0.46876    0.27675   1.00
H3       0.56741    0.39205    0.21263   1.00
H3       0.57727    0.46505    0.23646   1.00
C4       0.52085    0.25038    0.24996   1.00
C4       0.47915    0.24962    0.25004   1.00
C3       0.54249    0.26635    0.28132   1.00
C3       0.45748    0.24125    0.28416   1.00
C3       0.54262    0.23434    0.21873   1.00
C3       0.45741    0.25811    0.21596   1.00
C2       0.60518    0.25002    0.25016   1.00
C2       0.39482    0.25002    0.25016   1.00
C3a      0.58401    0.26626    0.28155   1.00
C3       0.41618    0.24145    0.28414   1.00
C3       0.58389    0.23419    0.21890   1.00
C3a      0.41597    0.25834    0.21582   1.00
H1       0.52706    0.27927    0.30565   1.00
H1       0.47250    0.23414    0.31103   1.00
C5       0.60590    0.28370    0.31537   1.00
H1       0.40067    0.23485    0.31086   1.00
H1       0.59944    0.22136    0.19458   1.00
C5       0.39465    0.26757    0.17854   1.00
H1       0.47253    0.26580    0.18933   1.00
H1       0.52770    0.22105    0.19427   1.00
H2       0.40163    0.24465    0.15668   1.00
H2       0.36253    0.26704    0.18303   1.00
N1       0.40605    0.30601    0.16389   1.00
C6       0.44190    0.31663    0.15183   1.00
C6       0.38243    0.33712    0.15963   1.00
C6       0.44127    0.35506    0.13989   1.00
C6       0.40344    0.36809    0.14486   1.00
H3       0.46719    0.29768    0.15163   1.00
H3       0.35169    0.33742    0.16694   1.00
H3       0.46564    0.37171    0.12875   1.00
H3       0.39242    0.39693    0.13841   1.00
H2       0.63772    0.28019    0.31021   1.00
H2       0.59999    0.31546    0.31801   1.00
N1       0.59477    0.26447    0.35170   1.00
C6       0.61922    0.24308    0.37738   1.00
C6       0.55715    0.26341    0.36902   1.00
C6       0.59723    0.22985    0.40843   1.00
C6       0.55909    0.24232    0.40329   1.00
H3       0.65008    0.23801    0.37301   1.00
H3       0.53124    0.27675    0.35683   1.00
H3       0.60795    0.21263    0.43259   1.00
H3       0.53495    0.23646    0.42273   1.00
C4       0.97915    0.25038    0.25004   1.00
C4       1.02085    0.24962    0.24996   1.00
C3       0.95751    0.26635    0.21868   1.00
C3       1.04252    0.24125    0.21584   1.00
C3       0.95738    0.23434    0.28127   1.00
C3       1.04259    0.25811    0.28404   1.00
C2       0.89482    0.25002    0.24984   1.00
C2       1.10518    0.25002    0.24984   1.00
C3a      0.91599    0.26626    0.21845   1.00
C3       1.08382    0.24145    0.21586   1.00
C3       0.91611    0.23419    0.28110   1.00
C3a      1.08403    0.25834    0.28418   1.00
H1       0.97294    0.27927    0.19435   1.00
H1       1.02750    0.23414    0.18897   1.00
C5       0.89410    0.28370    0.18463   1.00
H1       1.09933    0.23485    0.18914   1.00
H1       0.90056    0.22136    0.30542   1.00
C5       1.10535    0.26757    0.32146   1.00
H1       1.02747    0.26580    0.31067   1.00
H1       0.97230    0.22105    0.30573   1.00
H2       1.09837    0.24465    0.34332   1.00
H2       1.13747    0.26704    0.31697   1.00
N1       1.09395    0.30601    0.33611   1.00
C6       1.05810    0.31663    0.34817   1.00
C6       1.11757    0.33712    0.34037   1.00
C6       1.05873    0.35506    0.36011   1.00
C6       1.09656    0.36809    0.35514   1.00
H3       1.03281    0.29768    0.34837   1.00
H3       1.14831    0.33742    0.33306   1.00
H3       1.03436    0.37171    0.37125   1.00
H3       1.10758    0.39693    0.36159   1.00
H2       0.86228    0.28019    0.18979   1.00
H2       0.90001    0.31546    0.18199   1.00
N1       0.90523    0.26447    0.14830   1.00
C6       0.88078    0.24308    0.12262   1.00
C6       0.94285    0.26341    0.13098   1.00
C6       0.90277    0.22985    0.09157   1.00
C6       0.94091    0.24232    0.09671   1.00
H3       0.84992    0.23801    0.12699   1.00
H3       0.96876    0.27675    0.14317   1.00
H3       0.89205    0.21263    0.06741   1.00
H3       0.96505    0.23646    0.07727   1.00
C4       0.74996    0.02085    0.25038   1.00
C4       0.75004    -0.02085   0.24962   1.00
C3       0.78132    0.04249    0.26635   1.00
C3       0.78416    -0.04252   0.24125   1.00
C3       0.71873    0.04262    0.23434   1.00
C3       0.71596    -0.04259   0.25811   1.00
C2       0.75016    0.10518    0.25002   1.00
C2       0.75016    -0.10518   0.25002   1.00
C3a      0.78155    0.08401    0.26626   1.00
C3       0.78414    -0.08382   0.24145   1.00
C3       0.71890    0.08389    0.23419   1.00
C3a      0.71582    -0.08403   0.25834   1.00
H1       0.80565    0.02706    0.27927   1.00
H1       0.81103    -0.02750   0.23414   1.00
C5       0.81537    0.10590    0.28370   1.00
H1       0.81086    -0.09933   0.23485   1.00
H1       0.69458    0.09944    0.22136   1.00
C5       0.67854    -0.10535   0.26757   1.00
H1       0.68933    -0.02747   0.26580   1.00
H1       0.69427    0.02770    0.22105   1.00
H2       0.65668    -0.09837   0.24465   1.00
H2       0.68303    -0.13747   0.26704   1.00
N1       0.66389    -0.09395   0.30601   1.00
C6       0.65183    -0.05810   0.31663   1.00
C6       0.65963    -0.11757   0.33712   1.00
C6       0.63989    -0.05873   0.35506   1.00
C6       0.64486    -0.09656   0.36809   1.00
H3       0.65163    -0.03281   0.29768   1.00
H3       0.66694    -0.14831   0.33742   1.00
H3       0.62875    -0.03436   0.37171   1.00
H3       0.63841    -0.10758   0.39693   1.00
H2       0.81021    0.13772    0.28019   1.00
H2       0.81801    0.09999    0.31546   1.00
N1       0.85170    0.09477    0.26447   1.00
C6       0.87738    0.11922    0.24308   1.00
C6       0.86902    0.05715    0.26341   1.00
C6       0.90843    0.09723    0.22985   1.00
C6       0.90329    0.05909    0.24232   1.00
H3       0.87301    0.15008    0.23801   1.00
H3       0.85683    0.03124    0.27675   1.00
H3       0.93259    0.10795    0.21263   1.00
H3       0.92273    0.03495    0.23646   1.00
C4       0.75038    0.24996    0.02085   1.00
C4       0.74962    0.25004    -0.02085   1.00
C3       0.76635    0.28132    0.04249   1.00
C3       0.74125    0.28416    -0.04252   1.00
C3       0.73434    0.21873    0.04262   1.00
C3       0.75811    0.21596    -0.04259   1.00
C2       0.75002    0.25016    0.10518   1.00
C2       0.75002    0.25016    -0.10518   1.00
C3a      0.76626    0.28155    0.08401   1.00
C3       0.74145    0.28414    -0.08382   1.00
C3       0.73419    0.21890    0.08389   1.00
C3a      0.75834    0.21582    -0.08403   1.00
H1       0.77927    0.30565    0.02706   1.00
H1       0.73414    0.31103    -0.02750   1.00
C5       0.78370    0.31537    0.10590   1.00
H1       0.73485    0.31086    -0.09933   1.00
H1       0.72136    0.19458    0.09944   1.00
C5       0.76757    0.17854    -0.10535   1.00
H1       0.76580    0.18933    -0.02747   1.00
H1       0.72105    0.19427    0.02770   1.00
H2       0.74465    0.15668    -0.09837   1.00
H2       0.76704    0.18303    -0.13747   1.00
N1       0.80601    0.16389    -0.09395   1.00
C6       0.81663    0.15183    -0.05810   1.00
C6       0.83712    0.15963    -0.11757   1.00
C6       0.85506    0.13989    -0.05873   1.00
C6       0.86809    0.14486    -0.09656   1.00
H3       0.79768    0.15163    -0.03281   1.00
H3       0.83742    0.16694    -0.14831   1.00
H3       0.87171    0.12875    -0.03436   1.00
H3       0.89693    0.13841    -0.10758   1.00
H2       0.78019    0.31021    0.13772   1.00
H2       0.81546    0.31801    0.09999   1.00
N1       0.76447    0.35170    0.09477   1.00
C6       0.74308    0.37738    0.11922   1.00
C6       0.76341    0.36902    0.05715   1.00
C6       0.72985    0.40843    0.09723   1.00
C6       0.74232    0.40329    0.05909   1.00
H3       0.73801    0.37301    0.15008   1.00
H3       0.77675    0.35683    0.03124   1.00
H3       0.71263    0.43259    0.10795   1.00
H3       0.73646    0.42273    0.03495   1.00
C4       0.91538    0.91504    1.14415   1.00
C4       0.91462    0.91496    1.18585   1.00
C3       0.93135    0.88368    1.12251   1.00
C3       0.90625    0.88084    1.20752   1.00
C3       0.89934    0.94627    1.12238   1.00
C3       0.92311    0.94904    1.20759   1.00
C2       0.91502    0.91484    1.05982   1.00
C2       0.91502    0.91484    1.27018   1.00
C3a      0.93126    0.88345    1.08099   1.00
C3       0.90645    0.88086    1.24882   1.00
C3       0.89919    0.94610    1.08111   1.00
C3a      0.92334    0.94918    1.24903   1.00
H1       0.94427    0.85935    1.13794   1.00
H1       0.89914    0.85397    1.19250   1.00
C5       0.94870    0.84963    1.05910   1.00
H1       0.89985    0.85414    1.26433   1.00
H1       0.88636    0.97042    1.06556   1.00
C5       0.93257    0.98646    1.27035   1.00
H1       0.93080    0.97567    1.19247   1.00
H1       0.88605    0.97073    1.13730   1.00
H2       0.90965    1.00832    1.26337   1.00
H2       0.93204    0.98197    1.30247   1.00
N1       0.97101    1.00111    1.25895   1.00
C6       0.98163    1.01317    1.22310   1.00
C6       1.00212    1.00537    1.28257   1.00
C6       1.02006    1.02511    1.22373   1.00
C6       1.03309    1.02014    1.26156   1.00
H3       0.96268    1.01337    1.19781   1.00
H3       1.00242    0.99806    1.31331   1.00
H3       1.03671    1.03625    1.19936   1.00
H3       1.06193    1.02659    1.27258   1.00
H2       0.94519    0.85479    1.02728   1.00
H2       0.98046    0.84699    1.06501   1.00
N1       0.92947    0.81330    1.07023   1.00
C6       0.90808    0.78762    1.04578   1.00
C6       0.92841    0.79598    1.10785   1.00
C6       0.89485    0.75657    1.06777   1.00
C6       0.90732    0.76171    1.10591   1.00
H3       0.90301    0.79199    1.01492   1.00
H3       0.94175    0.80817    1.13376   1.00
H3       0.87763    0.73241    1.05705   1.00
H3       0.90146    0.74227    1.13005   1.00
C4       0.91504    1.14415    0.91538   1.00
C4       0.91496    1.18585    0.91462   1.00
C3       0.88368    1.12251    0.93135   1.00
C3       0.88084    1.20752    0.90625   1.00
C3       0.94627    1.12238    0.89934   1.00
C3       0.94904    1.20759    0.92311   1.00
C2       0.91484    1.05982    0.91502   1.00
C2       0.91484    1.27018    0.91502   1.00
C3a      0.88345    1.08099    0.93126   1.00
C3       0.88086    1.24882    0.90645   1.00
C3       0.94610    1.08111    0.89919   1.00
C3a      0.94918    1.24903    0.92334   1.00
H1       0.85935    1.13794    0.94427   1.00
H1       0.85397    1.19250    0.89914   1.00
C5       0.84963    1.05910    0.94870   1.00
H1       0.85414    1.26433    0.89985   1.00
H1       0.97042    1.06556    0.88636   1.00
C5       0.98646    1.27035    0.93257   1.00
H1       0.97567    1.19247    0.93080   1.00
H1       0.97073    1.13730    0.88605   1.00
H2       1.00832    1.26337    0.90965   1.00
H2       0.98197    1.30247    0.93204   1.00
N1       1.00111    1.25895    0.97101   1.00
C6       1.01317    1.22310    0.98163   1.00
C6       1.00537    1.28257    1.00212   1.00
C6       1.02511    1.22373    1.02006   1.00
C6       1.02014    1.26156    1.03309   1.00
H3       1.01337    1.19781    0.96268   1.00
H3       0.99806    1.31331    1.00242   1.00
H3       1.03625    1.19936    1.03671   1.00
H3       1.02659    1.27258    1.06193   1.00
H2       0.85479    1.02728    0.94519   1.00
H2       0.84699    1.06501    0.98046   1.00
N1       0.81330    1.07023    0.92947   1.00
C6       0.78762    1.04578    0.90808   1.00
C6       0.79598    1.10785    0.92841   1.00
C6       0.75657    1.06777    0.89485   1.00
C6       0.76171    1.10591    0.90732   1.00
H3       0.79199    1.01492    0.90301   1.00
H3       0.80817    1.13376    0.94175   1.00
H3       0.73241    1.05705    0.87763   1.00
H3       0.74227    1.13005    0.90146   1.00
C4       0.68585    0.91538    0.91496   1.00
C4       0.64415    0.91462    0.91504   1.00
C3       0.70749    0.93135    0.94632   1.00
C3       0.62248    0.90625    0.94916   1.00
C3       0.70762    0.89934    0.88373   1.00
C3       0.62241    0.92311    0.88096   1.00
C2       0.77018    0.91502    0.91516   1.00
C2       0.55982    0.91502    0.91516   1.00
C3a      0.74901    0.93126    0.94655   1.00
C3       0.58118    0.90645    0.94914   1.00
C3       0.74889    0.89919    0.88390   1.00
C3a      0.58097    0.92334    0.88082   1.00
H1       0.69206    0.94427    0.97065   1.00
H1       0.63750    0.89914    0.97603   1.00
C5       0.77090    0.94870    0.98037   1.00
H1       0.56567    0.89985    0.97586   1.00
H1       0.76444    0.88636    0.85958   1.00
C5       0.55965    0.93257    0.84354   1.00
H1       0.63753    0.93080    0.85433   1.00
H1       0.69270    0.88605    0.85927   1.00
H2       0.56663    0.90965    0.82168   1.00
H2       0.52753    0.93204    0.84803   1.00
N1       0.57105    0.97101    0.82889   1.00
C6       0.60690    0.98163    0.81683   1.00
C6       0.54743    1.00212    0.82463   1.00
C6       0.60627    1.02006    0.80489   1.00
C6       0.56844    1.03309    0.80986   1.00
H3       0.63219    0.96268    0.81663   1.00
H3       0.51669    1.00242    0.83194   1.00
H3       0.63064    1.03671    0.79375   1.00
H3       0.55742    1.06193    0.80341   1.00
H2       0.80272    0.94519    0.97521   1.00
H2       0.76499    0.98046    0.98301   1.00
N1       0.75977    0.92947    1.01670   1.00
C6       0.78422    0.90808    1.04238   1.00
C6       0.72215    0.92841    1.03402   1.00
C6       0.76223    0.89485    1.07343   1.00
C6       0.72409    0.90732    1.06829   1.00
H3       0.81508    0.90301    1.03801   1.00
H3       0.69624    0.94175    1.02183   1.00
H3       0.77295    0.87763    1.09759   1.00
H3       0.69995    0.90146    1.08773   1.00
C4       1.14415    0.91538    0.91504   1.00
C4       1.18585    0.91462    0.91496   1.00
C3       1.12251    0.93135    0.88368   1.00
C3       1.20752    0.90625    0.88084   1.00
C3       1.12238    0.89934    0.94627   1.00
C3       1.20759    0.92311    0.94904   1.00
C2       1.05982    0.91502    0.91484   1.00
C2       1.27018    0.91502    0.91484   1.00
C3a      1.08099    0.93126    0.88345   1.00
C3       1.24882    0.90645    0.88086   1.00
C3       1.08111    0.89919    0.94610   1.00
C3a      1.24903    0.92334    0.94918   1.00
H1       1.13794    0.94427    0.85935   1.00
H1       1.19250    0.89914    0.85397   1.00
C5       1.05910    0.94870    0.84963   1.00
H1       1.26433    0.89985    0.85414   1.00
H1       1.06556    0.88636    0.97042   1.00
C5       1.27035    0.93257    0.98646   1.00
H1       1.19247    0.93080    0.97567   1.00
H1       1.13730    0.88605    0.97073   1.00
H2       1.26337    0.90965    1.00832   1.00
H2       1.30247    0.93204    0.98197   1.00
N1       1.25895    0.97101    1.00111   1.00
C6       1.22310    0.98163    1.01317   1.00
C6       1.28257    1.00212    1.00537   1.00
C6       1.22373    1.02006    1.02511   1.00
C6       1.26156    1.03309    1.02014   1.00
H3       1.19781    0.96268    1.01337   1.00
H3       1.31331    1.00242    0.99806   1.00
H3       1.19936    1.03671    1.03625   1.00
H3       1.27258    1.06193    1.02659   1.00
H2       1.02728    0.94519    0.85479   1.00
H2       1.06501    0.98046    0.84699   1.00
N1       1.07023    0.92947    0.81330   1.00
C6       1.04578    0.90808    0.78762   1.00
C6       1.10785    0.92841    0.79598   1.00
C6       1.06777    0.89485    0.75657   1.00
C6       1.10591    0.90732    0.76171   1.00
H3       1.01492    0.90301    0.79199   1.00
H3       1.13376    0.94175    0.80817   1.00
H3       1.05705    0.87763    0.73241   1.00
H3       1.13005    0.90146    0.74227   1.00
C4       0.91496    0.68585    0.91538   1.00
C4       0.91504    0.64415    0.91462   1.00
C3       0.94632    0.70749    0.93135   1.00
C3       0.94916    0.62248    0.90625   1.00
C3       0.88373    0.70762    0.89934   1.00
C3       0.88096    0.62241    0.92311   1.00
C2       0.91516    0.77018    0.91502   1.00
C2       0.91516    0.55982    0.91502   1.00
C3a      0.94655    0.74901    0.93126   1.00
C3       0.94914    0.58118    0.90645   1.00
C3       0.88390    0.74889    0.89919   1.00
C3a      0.88082    0.58097    0.92334   1.00
H1       0.97065    0.69206    0.94427   1.00
H1       0.97603    0.63750    0.89914   1.00
C5       0.98037    0.77090    0.94870   1.00
H1       0.97586    0.56567    0.89985   1.00
H1       0.85958    0.76444    0.88636   1.00
C5       0.84354    0.55965    0.93257   1.00
H1       0.85433    0.63753    0.93080   1.00
H1       0.85927    0.69270    0.88605   1.00
H2       0.82168    0.56663    0.90965   1.00
H2       0.84803    0.52753    0.93204   1.00
N1       0.82889    0.57105    0.97101   1.00
C6       0.81683    0.60690    0.98163   1.00
C6       0.82463    0.54743    1.00212   1.00
C6       0.80489    0.60627    1.02006   1.00
C6       0.80986    0.56844    1.03309   1.00
H3       0.81663    0.63219    0.96268   1.00
H3       0.83194    0.51669    1.00242   1.00
H3       0.79375    0.63064    1.03671   1.00
H3       0.80341    0.55742    1.06193   1.00
H2       0.97521    0.80272    0.94519   1.00
H2       0.98301    0.76499    0.98046   1.00
N1       1.01670    0.75977    0.92947   1.00
C6       1.04238    0.78422    0.90808   1.00
C6       1.03402    0.72215    0.92841   1.00
C6       1.07343    0.76223    0.89485   1.00
C6       1.06829    0.72409    0.90732   1.00
H3       1.03801    0.81508    0.90301   1.00
H3       1.02183    0.69624    0.94175   1.00
H3       1.09759    0.77295    0.87763   1.00
H3       1.08773    0.69995    0.90146   1.00
C4       0.91538    0.91496    0.68585   1.00
C4       0.91462    0.91504    0.64415   1.00
C3       0.93135    0.94632    0.70749   1.00
C3       0.90625    0.94916    0.62248   1.00
C3       0.89934    0.88373    0.70762   1.00
C3       0.92311    0.88096    0.62241   1.00
C2       0.91502    0.91516    0.77018   1.00
C2       0.91502    0.91516    0.55982   1.00
C3a      0.93126    0.94655    0.74901   1.00
C3       0.90645    0.94914    0.58118   1.00
C3       0.89919    0.88390    0.74889   1.00
C3a      0.92334    0.88082    0.58097   1.00
H1       0.94427    0.97065    0.69206   1.00
H1       0.89914    0.97603    0.63750   1.00
C5       0.94870    0.98037    0.77090   1.00
H1       0.89985    0.97586    0.56567   1.00
H1       0.88636    0.85958    0.76444   1.00
C5       0.93257    0.84354    0.55965   1.00
H1       0.93080    0.85433    0.63753   1.00
H1       0.88605    0.85927    0.69270   1.00
H2       0.90965    0.82168    0.56663   1.00
H2       0.93204    0.84803    0.52753   1.00
N1       0.97101    0.82889    0.57105   1.00
C6       0.98163    0.81683    0.60690   1.00
C6       1.00212    0.82463    0.54743   1.00
C6       1.02006    0.80489    0.60627   1.00
C6       1.03309    0.80986    0.56844   1.00
H3       0.96268    0.81663    0.63219   1.00
H3       1.00242    0.83194    0.51669   1.00
H3       1.03671    0.79375    0.63064   1.00
H3       1.06193    0.80341    0.55742   1.00
H2       0.94519    0.97521    0.80272   1.00
H2       0.98046    0.98301    0.76499   1.00
N1       0.92947    1.01670    0.75977   1.00
C6       0.90808    1.04238    0.78422   1.00
C6       0.92841    1.03402    0.72215   1.00
C6       0.89485    1.07343    0.76223   1.00
C6       0.90732    1.06829    0.72409   1.00
H3       0.90301    1.03801    0.81508   1.00
H3       0.94175    1.02183    0.69624   1.00
H3       0.87763    1.09759    0.77295   1.00
H3       0.90146    1.08773    0.69995   1.00
C4       0.41538    0.41504    1.14415   1.00
C4       0.41462    0.41496    1.18585   1.00
C3       0.43135    0.38368    1.12251   1.00
C3       0.40625    0.38084    1.20752   1.00
C3       0.39934    0.44627    1.12238   1.00
C3       0.42311    0.44904    1.20759   1.00
C2       0.41502    0.41484    1.05982   1.00
C2       0.41502    0.41484    1.27018   1.00
C3a      0.43126    0.38345    1.08099   1.00
C3       0.40645    0.38086    1.24882   1.00
C3       0.39919    0.44610    1.08111   1.00
C3a      0.42334    0.44918    1.24903   1.00
H1       0.44427    0.35935    1.13794   1.00
H1       0.39914    0.35397    1.19250   1.00
C5       0.44870    0.34963    1.05910   1.00
H1       0.39985    0.35414    1.26433   1.00
H1       0.38636    0.47042    1.06556   1.00
C5       0.43257    0.48646    1.27035   1.00
H1       0.43080    0.47567    1.19247   1.00
H1       0.38605    0.47073    1.13730   1.00
H2       0.40965    0.50832    1.26337   1.00
H2       0.43204    0.48197    1.30247   1.00
N1       0.47101    0.50111    1.25895   1.00
C6       0.48163    0.51317    1.22310   1.00
C6       0.50212    0.50537    1.28257   1.00
C6       0.52006    0.52511    1.22373   1.00
C6       0.53309    0.52014    1.26156   1.00
H3       0.46268    0.51337    1.19781   1.00
H3       0.50242    0.49806    1.31331   1.00
H3       0.53671    0.53625    1.19936   1.00
H3       0.56193    0.52659    1.27258   1.00
H2       0.44519    0.35479    1.02728   1.00
H2       0.48046    0.34699    1.06501   1.00
N1       0.42947    0.31330    1.07023   1.00
C6       0.40808    0.28762    1.04578   1.00
C6       0.42841    0.29598    1.10785   1.00
C6       0.39485    0.25657    1.06777   1.00
C6       0.40732    0.26171    1.10591   1.00
H3       0.40301    0.29199    1.01492   1.00
H3       0.44175    0.30817    1.13376   1.00
H3       0.37763    0.23241    1.05705   1.00
H3       0.40146    0.24227    1.13005   1.00
C4       0.41504    0.64415    0.91538   1.00
C4       0.41496    0.68585    0.91462   1.00
C3       0.38368    0.62251    0.93135   1.00
C3       0.38084    0.70752    0.90625   1.00
C3       0.44627    0.62238    0.89934   1.00
C3       0.44904    0.70759    0.92311   1.00
C2       0.41484    0.55982    0.91502   1.00
C2       0.41484    0.77018    0.91502   1.00
C3a      0.38345    0.58099    0.93126   1.00
C3       0.38086    0.74882    0.90645   1.00
C3       0.44610    0.58111    0.89919   1.00
C3a      0.44918    0.74903    0.92334   1.00
H1       0.35935    0.63794    0.94427   1.00
H1       0.35397    0.69250    0.89914   1.00
C5       0.34963    0.55910    0.94870   1.00
H1       0.35414    0.76433    0.89985   1.00
H1       0.47042    0.56556    0.88636   1.00
C5       0.48646    0.77035    0.93257   1.00
H1       0.47567    0.69247    0.93080   1.00
H1       0.47073    0.63730    0.88605   1.00
H2       0.50832    0.76337    0.90965   1.00
H2       0.48197    0.80247    0.93204   1.00
N1       0.50111    0.75895    0.97101   1.00
C6       0.51317    0.72310    0.98163   1.00
C6       0.50537    0.78257    1.00212   1.00
C6       0.52511    0.72373    1.02006   1.00
C6       0.52014    0.76156    1.03309   1.00
H3       0.51337    0.69781    0.96268   1.00
H3       0.49806    0.81331    1.00242   1.00
H3       0.53625    0.69936    1.03671   1.00
H3       0.52659    0.77258    1.06193   1.00
H2       0.35479    0.52728    0.94519   1.00
H2       0.34699    0.56501    0.98046   1.00
N1       0.31330    0.57023    0.92947   1.00
C6       0.28762    0.54578    0.90808   1.00
C6       0.29598    0.60785    0.92841   1.00
C6       0.25657    0.56777    0.89485   1.00
C6       0.26171    0.60591    0.90732   1.00
H3       0.29199    0.51492    0.90301   1.00
H3       0.30817    0.63376    0.94175   1.00
H3       0.23241    0.55705    0.87763   1.00
H3       0.24227    0.63005    0.90146   1.00
C4       0.18585    0.41538    0.91496   1.00
C4       0.14415    0.41462    0.91504   1.00
C3       0.20749    0.43135    0.94632   1.00
C3       0.12248    0.40625    0.94916   1.00
C3       0.20762    0.39934    0.88373   1.00
C3       0.12241    0.42311    0.88096   1.00
C2       0.27018    0.41502    0.91516   1.00
C2       0.05982    0.41502    0.91516   1.00
C3a      0.24901    0.43126    0.94655   1.00
C3       0.08118    0.40645    0.94914   1.00
C3       0.24889    0.39919    0.88390   1.00
C3a      0.08097    0.42334    0.88082   1.00
H1       0.19206    0.44427    0.97065   1.00
H1       0.13750    0.39914    0.97603   1.00
C5       0.27090    0.44870    0.98037   1.00
H1       0.06567    0.39985    0.97586   1.00
H1       0.26444    0.38636    0.85958   1.00
C5       0.05965    0.43257    0.84354   1.00
H1       0.13753    0.43080    0.85433   1.00
H1       0.19270    0.38605    0.85927   1.00
H2       0.06663    0.40965    0.82168   1.00
H2       0.02753    0.43204    0.84803   1.00
N1       0.07105    0.47101    0.82889   1.00
C6       0.10690    0.48163    0.81683   1.00
C6       0.04743    0.50212    0.82463   1.00
C6       0.10627    0.52006    0.80489   1.00
C6       0.06844    0.53309    0.80986   1.00
H3       0.13219    0.46268    0.81663   1.00
H3       0.01669    0.50242    0.83194   1.00
H3       0.13064    0.53671    0.79375   1.00
H3       0.05742    0.56193    0.80341   1.00
H2       0.30272    0.44519    0.97521   1.00
H2       0.26499    0.48046    0.98301   1.00
N1       0.25977    0.42947    1.01670   1.00
C6       0.28422    0.40808    1.04238   1.00
C6       0.22215    0.42841    1.03402   1.00
C6       0.26223    0.39485    1.07343   1.00
C6       0.22409    0.40732    1.06829   1.00
H3       0.31508    0.40301    1.03801   1.00
H3       0.19624    0.44175    1.02183   1.00
H3       0.27295    0.37763    1.09759   1.00
H3       0.19995    0.40146    1.08773   1.00
C4       0.64415    0.41538    0.91504   1.00
C4       0.68585    0.41462    0.91496   1.00
C3       0.62251    0.43135    0.88368   1.00
C3       0.70752    0.40625    0.88084   1.00
C3       0.62238    0.39934    0.94627   1.00
C3       0.70759    0.42311    0.94904   1.00
C2       0.55982    0.41502    0.91484   1.00
C2       0.77018    0.41502    0.91484   1.00
C3a      0.58099    0.43126    0.88345   1.00
C3       0.74882    0.40645    0.88086   1.00
C3       0.58111    0.39919    0.94610   1.00
C3a      0.74903    0.42334    0.94918   1.00
H1       0.63794    0.44427    0.85935   1.00
H1       0.69250    0.39914    0.85397   1.00
C5       0.55910    0.44870    0.84963   1.00
H1       0.76433    0.39985    0.85414   1.00
H1       0.56556    0.38636    0.97042   1.00
C5       0.77035    0.43257    0.98646   1.00
H1       0.69247    0.43080    0.97567   1.00
H1       0.63730    0.38605    0.97073   1.00
H2       0.76337    0.40965    1.00832   1.00
H2       0.80247    0.43204    0.98197   1.00
N1       0.75895    0.47101    1.00111   1.00
C6       0.72310    0.48163    1.01317   1.00
C6       0.78257    0.50212    1.00537   1.00
C6       0.72373    0.52006    1.02511   1.00
C6       0.76156    0.53309    1.02014   1.00
H3       0.69781    0.46268    1.01337   1.00
H3       0.81331    0.50242    0.99806   1.00
H3       0.69936    0.53671    1.03625   1.00
H3       0.77258    0.56193    1.02659   1.00
H2       0.52728    0.44519    0.85479   1.00
H2       0.56501    0.48046    0.84699   1.00
N1       0.57023    0.42947    0.81330   1.00
C6       0.54578    0.40808    0.78762   1.00
C6       0.60785    0.42841    0.79598   1.00
C6       0.56777    0.39485    0.75657   1.00
C6       0.60591    0.40732    0.76171   1.00
H3       0.51492    0.40301    0.79199   1.00
H3       0.63376    0.44175    0.80817   1.00
H3       0.55705    0.37763    0.73241   1.00
H3       0.63005    0.40146    0.74227   1.00
C4       0.41496    0.18585    0.91538   1.00
C4       0.41504    0.14415    0.91462   1.00
C3       0.44632    0.20749    0.93135   1.00
C3       0.44916    0.12248    0.90625   1.00
C3       0.38373    0.20762    0.89934   1.00
C3       0.38096    0.12241    0.92311   1.00
C2       0.41516    0.27018    0.91502   1.00
C2       0.41516    0.05982    0.91502   1.00
C3a      0.44655    0.24901    0.93126   1.00
C3       0.44914    0.08118    0.90645   1.00
C3       0.38390    0.24889    0.89919   1.00
C3a      0.38082    0.08097    0.92334   1.00
H1       0.47065    0.19206    0.94427   1.00
H1       0.47603    0.13750    0.89914   1.00
C5       0.48037    0.27090    0.94870   1.00
H1       0.47586    0.06567    0.89985   1.00
H1       0.35958    0.26444    0.88636   1.00
C5       0.34354    0.05965    0.93257   1.00
H1       0.35433    0.13753    0.93080   1.00
H1       0.35927    0.19270    0.88605   1.00
H2       0.32168    0.06663    0.90965   1.00
H2       0.34803    0.02753    0.93204   1.00
N1       0.32889    0.07105    0.97101   1.00
C6       0.31683    0.10690    0.98163   1.00
C6       0.32463    0.04743    1.00212   1.00
C6       0.30489    0.10627    1.02006   1.00
C6       0.30986    0.06844    1.03309   1.00
H3       0.31663    0.13219    0.96268   1.00
H3       0.33194    0.01669    1.00242   1.00
H3       0.29375    0.13064    1.03671   1.00
H3       0.30341    0.05742    1.06193   1.00
H2       0.47521    0.30272    0.94519   1.00
H2       0.48301    0.26499    0.98046   1.00
N1       0.51670    0.25977    0.92947   1.00
C6       0.54238    0.28422    0.90808   1.00
C6       0.53402    0.22215    0.92841   1.00
C6       0.57343    0.26223    0.89485   1.00
C6       0.56829    0.22409    0.90732   1.00
H3       0.53801    0.31508    0.90301   1.00
H3       0.52183    0.19624    0.94175   1.00
H3       0.59759    0.27295    0.87763   1.00
H3       0.58773    0.19995    0.90146   1.00
C4       0.41538    0.41496    0.68585   1.00
C4       0.41462    0.41504    0.64415   1.00
C3       0.43135    0.44632    0.70749   1.00
C3       0.40625    0.44916    0.62248   1.00
C3       0.39934    0.38373    0.70762   1.00
C3       0.42311    0.38096    0.62241   1.00
C2       0.41502    0.41516    0.77018   1.00
C2       0.41502    0.41516    0.55982   1.00
C3a      0.43126    0.44655    0.74901   1.00
C3       0.40645    0.44914    0.58118   1.00
C3       0.39919    0.38390    0.74889   1.00
C3a      0.42334    0.38082    0.58097   1.00
H1       0.44427    0.47065    0.69206   1.00
H1       0.39914    0.47603    0.63750   1.00
C5       0.44870    0.48037    0.77090   1.00
H1       0.39985    0.47586    0.56567   1.00
H1       0.38636    0.35958    0.76444   1.00
C5       0.43257    0.34354    0.55965   1.00
H1       0.43080    0.35433    0.63753   1.00
H1       0.38605    0.35927    0.69270   1.00
H2       0.40965    0.32168    0.56663   1.00
H2       0.43204    0.34803    0.52753   1.00
N1       0.47101    0.32889    0.57105   1.00
C6       0.48163    0.31683    0.60690   1.00
C6       0.50212    0.32463    0.54743   1.00
C6       0.52006    0.30489    0.60627   1.00
C6       0.53309    0.30986    0.56844   1.00
H3       0.46268    0.31663    0.63219   1.00
H3       0.50242    0.33194    0.51669   1.00
H3       0.53671    0.29375    0.63064   1.00
H3       0.56193    0.30341    0.55742   1.00
H2       0.44519    0.47521    0.80272   1.00
H2       0.48046    0.48301    0.76499   1.00
N1       0.42947    0.51670    0.75977   1.00
C6       0.40808    0.54238    0.78422   1.00
C6       0.42841    0.53402    0.72215   1.00
C6       0.39485    0.57343    0.76223   1.00
C6       0.40732    0.56829    0.72409   1.00
H3       0.40301    0.53801    0.81508   1.00
H3       0.44175    0.52183    0.69624   1.00
H3       0.37763    0.59759    0.77295   1.00
H3       0.40146    0.58773    0.69995   1.00
C4       0.41538    0.91504    0.64415   1.00
C4       0.41462    0.91496    0.68585   1.00
C3       0.43135    0.88368    0.62251   1.00
C3       0.40625    0.88084    0.70752   1.00
C3       0.39934    0.94627    0.62238   1.00
C3       0.42311    0.94904    0.70759   1.00
C2       0.41502    0.91484    0.55982   1.00
C2       0.41502    0.91484    0.77018   1.00
C3a      0.43126    0.88345    0.58099   1.00
C3       0.40645    0.88086    0.74882   1.00
C3       0.39919    0.94610    0.58111   1.00
C3a      0.42334    0.94918    0.74903   1.00
H1       0.44427    0.85935    0.63794   1.00
H1       0.39914    0.85397    0.69250   1.00
C5       0.44870    0.84963    0.55910   1.00
H1       0.39985    0.85414    0.76433   1.00
H1       0.38636    0.97042    0.56556   1.00
C5       0.43257    0.98646    0.77035   1.00
H1       0.43080    0.97567    0.69247   1.00
H1       0.38605    0.97073    0.63730   1.00
H2       0.40965    1.00832    0.76337   1.00
H2       0.43204    0.98197    0.80247   1.00
N1       0.47101    1.00111    0.75895   1.00
C6       0.48163    1.01317    0.72310   1.00
C6       0.50212    1.00537    0.78257   1.00
C6       0.52006    1.02511    0.72373   1.00
C6       0.53309    1.02014    0.76156   1.00
H3       0.46268    1.01337    0.69781   1.00
H3       0.50242    0.99806    0.81331   1.00
H3       0.53671    1.03625    0.69936   1.00
H3       0.56193    1.02659    0.77258   1.00
H2       0.44519    0.85479    0.52728   1.00
H2       0.48046    0.84699    0.56501   1.00
N1       0.42947    0.81330    0.57023   1.00
C6       0.40808    0.78762    0.54578   1.00
C6       0.42841    0.79598    0.60785   1.00
C6       0.39485    0.75657    0.56777   1.00
C6       0.40732    0.76171    0.60591   1.00
H3       0.40301    0.79199    0.51492   1.00
H3       0.44175    0.80817    0.63376   1.00
H3       0.37763    0.73241    0.55705   1.00
H3       0.40146    0.74227    0.63005   1.00
C4       0.41504    1.14415    0.41538   1.00
C4       0.41496    1.18585    0.41462   1.00
C3       0.38368    1.12251    0.43135   1.00
C3       0.38084    1.20752    0.40625   1.00
C3       0.44627    1.12238    0.39934   1.00
C3       0.44904    1.20759    0.42311   1.00
C2       0.41484    1.05982    0.41502   1.00
C2       0.41484    1.27018    0.41502   1.00
C3a      0.38345    1.08099    0.43126   1.00
C3       0.38086    1.24882    0.40645   1.00
C3       0.44610    1.08111    0.39919   1.00
C3a      0.44918    1.24903    0.42334   1.00
H1       0.35935    1.13794    0.44427   1.00
H1       0.35397    1.19250    0.39914   1.00
C5       0.34963    1.05910    0.44870   1.00
H1       0.35414    1.26433    0.39985   1.00
H1       0.47042    1.06556    0.38636   1.00
C5       0.48646    1.27035    0.43257   1.00
H1       0.47567    1.19247    0.43080   1.00
H1       0.47073    1.13730    0.38605   1.00
H2       0.50832    1.26337    0.40965   1.00
H2       0.48197    1.30247    0.43204   1.00
N1       0.50111    1.25895    0.47101   1.00
C6       0.51317    1.22310    0.48163   1.00
C6       0.50537    1.28257    0.50212   1.00
C6       0.52511    1.22373    0.52006   1.00
C6       0.52014    1.26156    0.53309   1.00
H3       0.51337    1.19781    0.46268   1.00
H3       0.49806    1.31331    0.50242   1.00
H3       0.53625    1.19936    0.53671   1.00
H3       0.52659    1.27258    0.56193   1.00
H2       0.35479    1.02728    0.44519   1.00
H2       0.34699    1.06501    0.48046   1.00
N1       0.31330    1.07023    0.42947   1.00
C6       0.28762    1.04578    0.40808   1.00
C6       0.29598    1.10785    0.42841   1.00
C6       0.25657    1.06777    0.39485   1.00
C6       0.26171    1.10591    0.40732   1.00
H3       0.29199    1.01492    0.40301   1.00
H3       0.30817    1.13376    0.44175   1.00
H3       0.23241    1.05705    0.37763   1.00
H3       0.24227    1.13005    0.40146   1.00
C4       0.18585    0.91538    0.41496   1.00
C4       0.14415    0.91462    0.41504   1.00
C3       0.20749    0.93135    0.44632   1.00
C3       0.12248    0.90625    0.44916   1.00
C3       0.20762    0.89934    0.38373   1.00
C3       0.12241    0.92311    0.38096   1.00
C2       0.27018    0.91502    0.41516   1.00
C2       0.05982    0.91502    0.41516   1.00
C3a      0.24901    0.93126    0.44655   1.00
C3       0.08118    0.90645    0.44914   1.00
C3       0.24889    0.89919    0.38390   1.00
C3a      0.08097    0.92334    0.38082   1.00
H1       0.19206    0.94427    0.47065   1.00
H1       0.13750    0.89914    0.47603   1.00
C5       0.27090    0.94870    0.48037   1.00
H1       0.06567    0.89985    0.47586   1.00
H1       0.26444    0.88636    0.35958   1.00
C5       0.05965    0.93257    0.34354   1.00
H1       0.13753    0.93080    0.35433   1.00
H1       0.19270    0.88605    0.35927   1.00
H2       0.06663    0.90965    0.32168   1.00
H2       0.02753    0.93204    0.34803   1.00
N1       0.07105    0.97101    0.32889   1.00
C6       0.10690    0.98163    0.31683   1.00
C6       0.04743    1.00212    0.32463   1.00
C6       0.10627    1.02006    0.30489   1.00
C6       0.06844    1.03309    0.30986   1.00
H3       0.13219    0.96268    0.31663   1.00
H3       0.01669    1.00242    0.33194   1.00
H3       0.13064    1.03671    0.29375   1.00
H3       0.05742    1.06193    0.30341   1.00
H2       0.30272    0.94519    0.47521   1.00
H2       0.26499    0.98046    0.48301   1.00
N1       0.25977    0.92947    0.51670   1.00
C6       0.28422    0.90808    0.54238   1.00
C6       0.22215    0.92841    0.53402   1.00
C6       0.26223    0.89485    0.57343   1.00
C6       0.22409    0.90732    0.56829   1.00
H3       0.31508    0.90301    0.53801   1.00
H3       0.19624    0.94175    0.52183   1.00
H3       0.27295    0.87763    0.59759   1.00
H3       0.19995    0.90146    0.58773   1.00
C4       0.64415    0.91538    0.41504   1.00
C4       0.68585    0.91462    0.41496   1.00
C3       0.62251    0.93135    0.38368   1.00
C3       0.70752    0.90625    0.38084   1.00
C3       0.62238    0.89934    0.44627   1.00
C3       0.70759    0.92311    0.44904   1.00
C2       0.55982    0.91502    0.41484   1.00
C2       0.77018    0.91502    0.41484   1.00
C3a      0.58099    0.93126    0.38345   1.00
C3       0.74882    0.90645    0.38086   1.00
C3       0.58111    0.89919    0.44610   1.00
C3a      0.74903    0.92334    0.44918   1.00
H1       0.63794    0.94427    0.35935   1.00
H1       0.69250    0.89914    0.35397   1.00
C5       0.55910    0.94870    0.34963   1.00
H1       0.76433    0.89985    0.35414   1.00
H1       0.56556    0.88636    0.47042   1.00
C5       0.77035    0.93257    0.48646   1.00
H1       0.69247    0.93080    0.47567   1.00
H1       0.63730    0.88605    0.47073   1.00
H2       0.76337    0.90965    0.50832   1.00
H2       0.80247    0.93204    0.48197   1.00
N1       0.75895    0.97101    0.50111   1.00
C6       0.72310    0.98163    0.51317   1.00
C6       0.78257    1.00212    0.50537   1.00
C6       0.72373    1.02006    0.52511   1.00
C6       0.76156    1.03309    0.52014   1.00
H3       0.69781    0.96268    0.51337   1.00
H3       0.81331    1.00242    0.49806   1.00
H3       0.69936    1.03671    0.53625   1.00
H3       0.77258    1.06193    0.52659   1.00
H2       0.52728    0.94519    0.35479   1.00
H2       0.56501    0.98046    0.34699   1.00
N1       0.57023    0.92947    0.31330   1.00
C6       0.54578    0.90808    0.28762   1.00
C6       0.60785    0.92841    0.29598   1.00
C6       0.56777    0.89485    0.25657   1.00
C6       0.60591    0.90732    0.26171   1.00
H3       0.51492    0.90301    0.29199   1.00
H3       0.63376    0.94175    0.30817   1.00
H3       0.55705    0.87763    0.23241   1.00
H3       0.63005    0.90146    0.24227   1.00
C4       0.41496    0.68585    0.41538   1.00
C4       0.41504    0.64415    0.41462   1.00
C3       0.44632    0.70749    0.43135   1.00
C3       0.44916    0.62248    0.40625   1.00
C3       0.38373    0.70762    0.39934   1.00
C3       0.38096    0.62241    0.42311   1.00
C2       0.41516    0.77018    0.41502   1.00
C2       0.41516    0.55982    0.41502   1.00
C3a      0.44655    0.74901    0.43126   1.00
C3       0.44914    0.58118    0.40645   1.00
C3       0.38390    0.74889    0.39919   1.00
C3a      0.38082    0.58097    0.42334   1.00
H1       0.47065    0.69206    0.44427   1.00
H1       0.47603    0.63750    0.39914   1.00
C5       0.48037    0.77090    0.44870   1.00
H1       0.47586    0.56567    0.39985   1.00
H1       0.35958    0.76444    0.38636   1.00
C5       0.34354    0.55965    0.43257   1.00
H1       0.35433    0.63753    0.43080   1.00
H1       0.35927    0.69270    0.38605   1.00
H2       0.32168    0.56663    0.40965   1.00
H2       0.34803    0.52753    0.43204   1.00
N1       0.32889    0.57105    0.47101   1.00
C6       0.31683    0.60690    0.48163   1.00
C6       0.32463    0.54743    0.50212   1.00
C6       0.30489    0.60627    0.52006   1.00
C6       0.30986    0.56844    0.53309   1.00
H3       0.31663    0.63219    0.46268   1.00
H3       0.33194    0.51669    0.50242   1.00
H3       0.29375    0.63064    0.53671   1.00
H3       0.30341    0.55742    0.56193   1.00
H2       0.47521    0.80272    0.44519   1.00
H2       0.48301    0.76499    0.48046   1.00
N1       0.51670    0.75977    0.42947   1.00
C6       0.54238    0.78422    0.40808   1.00
C6       0.53402    0.72215    0.42841   1.00
C6       0.57343    0.76223    0.39485   1.00
C6       0.56829    0.72409    0.40732   1.00
H3       0.53801    0.81508    0.40301   1.00
H3       0.52183    0.69624    0.44175   1.00
H3       0.59759    0.77295    0.37763   1.00
H3       0.58773    0.69995    0.40146   1.00
C4       0.41538    0.91496    0.18585   1.00
C4       0.41462    0.91504    0.14415   1.00
C3       0.43135    0.94632    0.20749   1.00
C3       0.40625    0.94916    0.12248   1.00
C3       0.39934    0.88373    0.20762   1.00
C3       0.42311    0.88096    0.12241   1.00
C2       0.41502    0.91516    0.27018   1.00
C2       0.41502    0.91516    0.05982   1.00
C3a      0.43126    0.94655    0.24901   1.00
C3       0.40645    0.94914    0.08118   1.00
C3       0.39919    0.88390    0.24889   1.00
C3a      0.42334    0.88082    0.08097   1.00
H1       0.44427    0.97065    0.19206   1.00
H1       0.39914    0.97603    0.13750   1.00
C5       0.44870    0.98037    0.27090   1.00
H1       0.39985    0.97586    0.06567   1.00
H1       0.38636    0.85958    0.26444   1.00
C5       0.43257    0.84354    0.05965   1.00
H1       0.43080    0.85433    0.13753   1.00
H1       0.38605    0.85927    0.19270   1.00
H2       0.40965    0.82168    0.06663   1.00
H2       0.43204    0.84803    0.02753   1.00
N1       0.47101    0.82889    0.07105   1.00
C6       0.48163    0.81683    0.10690   1.00
C6       0.50212    0.82463    0.04743   1.00
C6       0.52006    0.80489    0.10627   1.00
C6       0.53309    0.80986    0.06844   1.00
H3       0.46268    0.81663    0.13219   1.00
H3       0.50242    0.83194    0.01669   1.00
H3       0.53671    0.79375    0.13064   1.00
H3       0.56193    0.80341    0.05742   1.00
H2       0.44519    0.97521    0.30272   1.00
H2       0.48046    0.98301    0.26499   1.00
N1       0.42947    1.01670    0.25977   1.00
C6       0.40808    1.04238    0.28422   1.00
C6       0.42841    1.03402    0.22215   1.00
C6       0.39485    1.07343    0.26223   1.00
C6       0.40732    1.06829    0.22409   1.00
H3       0.40301    1.03801    0.31508   1.00
H3       0.44175    1.02183    0.19624   1.00
H3       0.37763    1.09759    0.27295   1.00
H3       0.40146    1.08773    0.19995   1.00
C4       0.91538    0.41504    0.64415   1.00
C4       0.91462    0.41496    0.68585   1.00
C3       0.93135    0.38368    0.62251   1.00
C3       0.90625    0.38084    0.70752   1.00
C3       0.89934    0.44627    0.62238   1.00
C3       0.92311    0.44904    0.70759   1.00
C2       0.91502    0.41484    0.55982   1.00
C2       0.91502    0.41484    0.77018   1.00
C3a      0.93126    0.38345    0.58099   1.00
C3       0.90645    0.38086    0.74882   1.00
C3       0.89919    0.44610    0.58111   1.00
C3a      0.92334    0.44918    0.74903   1.00
H1       0.94427    0.35935    0.63794   1.00
H1       0.89914    0.35397    0.69250   1.00
C5       0.94870    0.34963    0.55910   1.00
H1       0.89985    0.35414    0.76433   1.00
H1       0.88636    0.47042    0.56556   1.00
C5       0.93257    0.48646    0.77035   1.00
H1       0.93080    0.47567    0.69247   1.00
H1       0.88605    0.47073    0.63730   1.00
H2       0.90965    0.50832    0.76337   1.00
H2       0.93204    0.48197    0.80247   1.00
N1       0.97101    0.50111    0.75895   1.00
C6       0.98163    0.51317    0.72310   1.00
C6       1.00212    0.50537    0.78257   1.00
C6       1.02006    0.52511    0.72373   1.00
C6       1.03309    0.52014    0.76156   1.00
H3       0.96268    0.51337    0.69781   1.00
H3       1.00242    0.49806    0.81331   1.00
H3       1.03671    0.53625    0.69936   1.00
H3       1.06193    0.52659    0.77258   1.00
H2       0.94519    0.35479    0.52728   1.00
H2       0.98046    0.34699    0.56501   1.00
N1       0.92947    0.31330    0.57023   1.00
C6       0.90808    0.28762    0.54578   1.00
C6       0.92841    0.29598    0.60785   1.00
C6       0.89485    0.25657    0.56777   1.00
C6       0.90732    0.26171    0.60591   1.00
H3       0.90301    0.29199    0.51492   1.00
H3       0.94175    0.30817    0.63376   1.00
H3       0.87763    0.23241    0.55705   1.00
H3       0.90146    0.24227    0.63005   1.00
C4       0.91504    0.64415    0.41538   1.00
C4       0.91496    0.68585    0.41462   1.00
C3       0.88368    0.62251    0.43135   1.00
C3       0.88084    0.70752    0.40625   1.00
C3       0.94627    0.62238    0.39934   1.00
C3       0.94904    0.70759    0.42311   1.00
C2       0.91484    0.55982    0.41502   1.00
C2       0.91484    0.77018    0.41502   1.00
C3a      0.88345    0.58099    0.43126   1.00
C3       0.88086    0.74882    0.40645   1.00
C3       0.94610    0.58111    0.39919   1.00
C3a      0.94918    0.74903    0.42334   1.00
H1       0.85935    0.63794    0.44427   1.00
H1       0.85397    0.69250    0.39914   1.00
C5       0.84963    0.55910    0.44870   1.00
H1       0.85414    0.76433    0.39985   1.00
H1       0.97042    0.56556    0.38636   1.00
C5       0.98646    0.77035    0.43257   1.00
H1       0.97567    0.69247    0.43080   1.00
H1       0.97073    0.63730    0.38605   1.00
H2       1.00832    0.76337    0.40965   1.00
H2       0.98197    0.80247    0.43204   1.00
N1       1.00111    0.75895    0.47101   1.00
C6       1.01317    0.72310    0.48163   1.00
C6       1.00537    0.78257    0.50212   1.00
C6       1.02511    0.72373    0.52006   1.00
C6       1.02014    0.76156    0.53309   1.00
H3       1.01337    0.69781    0.46268   1.00
H3       0.99806    0.81331    0.50242   1.00
H3       1.03625    0.69936    0.53671   1.00
H3       1.02659    0.77258    0.56193   1.00
H2       0.85479    0.52728    0.44519   1.00
H2       0.84699    0.56501    0.48046   1.00
N1       0.81330    0.57023    0.42947   1.00
C6       0.78762    0.54578    0.40808   1.00
C6       0.79598    0.60785    0.42841   1.00
C6       0.75657    0.56777    0.39485   1.00
C6       0.76171    0.60591    0.40732   1.00
H3       0.79199    0.51492    0.40301   1.00
H3       0.80817    0.63376    0.44175   1.00
H3       0.73241    0.55705    0.37763   1.00
H3       0.74227    0.63005    0.40146   1.00
C4       0.68585    0.41538    0.41496   1.00
C4       0.64415    0.41462    0.41504   1.00
C3       0.70749    0.43135    0.44632   1.00
C3       0.62248    0.40625    0.44916   1.00
C3       0.70762    0.39934    0.38373   1.00
C3       0.62241    0.42311    0.38096   1.00
C2       0.77018    0.41502    0.41516   1.00
C2       0.55982    0.41502    0.41516   1.00
C3a      0.74901    0.43126    0.44655   1.00
C3       0.58118    0.40645    0.44914   1.00
C3       0.74889    0.39919    0.38390   1.00
C3a      0.58097    0.42334    0.38082   1.00
H1       0.69206    0.44427    0.47065   1.00
H1       0.63750    0.39914    0.47603   1.00
C5       0.77090    0.44870    0.48037   1.00
H1       0.56567    0.39985    0.47586   1.00
H1       0.76444    0.38636    0.35958   1.00
C5       0.55965    0.43257    0.34354   1.00
H1       0.63753    0.43080    0.35433   1.00
H1       0.69270    0.38605    0.35927   1.00
H2       0.56663    0.40965    0.32168   1.00
H2       0.52753    0.43204    0.34803   1.00
N1       0.57105    0.47101    0.32889   1.00
C6       0.60690    0.48163    0.31683   1.00
C6       0.54743    0.50212    0.32463   1.00
C6       0.60627    0.52006    0.30489   1.00
C6       0.56844    0.53309    0.30986   1.00
H3       0.63219    0.46268    0.31663   1.00
H3       0.51669    0.50242    0.33194   1.00
H3       0.63064    0.53671    0.29375   1.00
H3       0.55742    0.56193    0.30341   1.00
H2       0.80272    0.44519    0.47521   1.00
H2       0.76499    0.48046    0.48301   1.00
N1       0.75977    0.42947    0.51670   1.00
C6       0.78422    0.40808    0.54238   1.00
C6       0.72215    0.42841    0.53402   1.00
C6       0.76223    0.39485    0.57343   1.00
C6       0.72409    0.40732    0.56829   1.00
H3       0.81508    0.40301    0.53801   1.00
H3       0.69624    0.44175    0.52183   1.00
H3       0.77295    0.37763    0.59759   1.00
H3       0.69995    0.40146    0.58773   1.00
C4       1.14415    0.41538    0.41504   1.00
C4       1.18585    0.41462    0.41496   1.00
C3       1.12251    0.43135    0.38368   1.00
C3       1.20752    0.40625    0.38084   1.00
C3       1.12238    0.39934    0.44627   1.00
C3       1.20759    0.42311    0.44904   1.00
C2       1.05982    0.41502    0.41484   1.00
C2       1.27018    0.41502    0.41484   1.00
C3a      1.08099    0.43126    0.38345   1.00
C3       1.24882    0.40645    0.38086   1.00
C3       1.08111    0.39919    0.44610   1.00
C3a      1.24903    0.42334    0.44918   1.00
H1       1.13794    0.44427    0.35935   1.00
H1       1.19250    0.39914    0.35397   1.00
C5       1.05910    0.44870    0.34963   1.00
H1       1.26433    0.39985    0.35414   1.00
H1       1.06556    0.38636    0.47042   1.00
C5       1.27035    0.43257    0.48646   1.00
H1       1.19247    0.43080    0.47567   1.00
H1       1.13730    0.38605    0.47073   1.00
H2       1.26337    0.40965    0.50832   1.00
H2       1.30247    0.43204    0.48197   1.00
N1       1.25895    0.47101    0.50111   1.00
C6       1.22310    0.48163    0.51317   1.00
C6       1.28257    0.50212    0.50537   1.00
C6       1.22373    0.52006    0.52511   1.00
C6       1.26156    0.53309    0.52014   1.00
H3       1.19781    0.46268    0.51337   1.00
H3       1.31331    0.50242    0.49806   1.00
H3       1.19936    0.53671    0.53625   1.00
H3       1.27258    0.56193    0.52659   1.00
H2       1.02728    0.44519    0.35479   1.00
H2       1.06501    0.48046    0.34699   1.00
N1       1.07023    0.42947    0.31330   1.00
C6       1.04578    0.40808    0.28762   1.00
C6       1.10785    0.42841    0.29598   1.00
C6       1.06777    0.39485    0.25657   1.00
C6       1.10591    0.40732    0.26171   1.00
H3       1.01492    0.40301    0.29199   1.00
H3       1.13376    0.44175    0.30817   1.00
H3       1.05705    0.37763    0.23241   1.00
H3       1.13005    0.40146    0.24227   1.00
C4       0.91496    0.18585    0.41538   1.00
C4       0.91504    0.14415    0.41462   1.00
C3       0.94632    0.20749    0.43135   1.00
C3       0.94916    0.12248    0.40625   1.00
C3       0.88373    0.20762    0.39934   1.00
C3       0.88096    0.12241    0.42311   1.00
C2       0.91516    0.27018    0.41502   1.00
C2       0.91516    0.05982    0.41502   1.00
C3a      0.94655    0.24901    0.43126   1.00
C3       0.94914    0.08118    0.40645   1.00
C3       0.88390    0.24889    0.39919   1.00
C3a      0.88082    0.08097    0.42334   1.00
H1       0.97065    0.19206    0.44427   1.00
H1       0.97603    0.13750    0.39914   1.00
C5       0.98037    0.27090    0.44870   1.00
H1       0.97586    0.06567    0.39985   1.00
H1       0.85958    0.26444    0.38636   1.00
C5       0.84354    0.05965    0.43257   1.00
H1       0.85433    0.13753    0.43080   1.00
H1       0.85927    0.19270    0.38605   1.00
H2       0.82168    0.06663    0.40965   1.00
H2       0.84803    0.02753    0.43204   1.00
N1       0.82889    0.07105    0.47101   1.00
C6       0.81683    0.10690    0.48163   1.00
C6       0.82463    0.04743    0.50212   1.00
C6       0.80489    0.10627    0.52006   1.00
C6       0.80986    0.06844    0.53309   1.00
H3       0.81663    0.13219    0.46268   1.00
H3       0.83194    0.01669    0.50242   1.00
H3       0.79375    0.13064    0.53671   1.00
H3       0.80341    0.05742    0.56193   1.00
H2       0.97521    0.30272    0.44519   1.00
H2       0.98301    0.26499    0.48046   1.00
N1       1.01670    0.25977    0.42947   1.00
C6       1.04238    0.28422    0.40808   1.00
C6       1.03402    0.22215    0.42841   1.00
C6       1.07343    0.26223    0.39485   1.00
C6       1.06829    0.22409    0.40732   1.00
H3       1.03801    0.31508    0.40301   1.00
H3       1.02183    0.19624    0.44175   1.00
H3       1.09759    0.27295    0.37763   1.00
H3       1.08773    0.19995    0.40146   1.00
C4       0.91538    0.41496    0.18585   1.00
C4       0.91462    0.41504    0.14415   1.00
C3       0.93135    0.44632    0.20749   1.00
C3       0.90625    0.44916    0.12248   1.00
C3       0.89934    0.38373    0.20762   1.00
C3       0.92311    0.38096    0.12241   1.00
C2       0.91502    0.41516    0.27018   1.00
C2       0.91502    0.41516    0.05982   1.00
C3a      0.93126    0.44655    0.24901   1.00
C3       0.90645    0.44914    0.08118   1.00
C3       0.89919    0.38390    0.24889   1.00
C3a      0.92334    0.38082    0.08097   1.00
H1       0.94427    0.47065    0.19206   1.00
H1       0.89914    0.47603    0.13750   1.00
C5       0.94870    0.48037    0.27090   1.00
H1       0.89985    0.47586    0.06567   1.00
H1       0.88636    0.35958    0.26444   1.00
C5       0.93257    0.34354    0.05965   1.00
H1       0.93080    0.35433    0.13753   1.00
H1       0.88605    0.35927    0.19270   1.00
H2       0.90965    0.32168    0.06663   1.00
H2       0.93204    0.34803    0.02753   1.00
N1       0.97101    0.32889    0.07105   1.00
C6       0.98163    0.31683    0.10690   1.00
C6       1.00212    0.32463    0.04743   1.00
C6       1.02006    0.30489    0.10627   1.00
C6       1.03309    0.30986    0.06844   1.00
H3       0.96268    0.31663    0.13219   1.00
H3       1.00242    0.33194    0.01669   1.00
H3       1.03671    0.29375    0.13064   1.00
H3       1.06193    0.30341    0.05742   1.00
H2       0.94519    0.47521    0.30272   1.00
H2       0.98046    0.48301    0.26499   1.00
N1       0.92947    0.51670    0.25977   1.00
C6       0.90808    0.54238    0.28422   1.00
C6       0.92841    0.53402    0.22215   1.00
C6       0.89485    0.57343    0.26223   1.00
C6       0.90732    0.56829    0.22409   1.00
H3       0.90301    0.53801    0.31508   1.00
H3       0.94175    0.52183    0.19624   1.00
H3       0.87763    0.59759    0.27295   1.00
H3       0.90146    0.58773    0.19995   1.00
