data_IRMOF10_SG202_interpen_Ligand4cp_label_n.

_audit_creation_method             'generated by an auxiliary program of Tobunporous'

_symmetry_space_group_name_H-M     'P 1'
_symmetry_Int_Tables_number        1
_symmetry_cell_setting             triclinic

_cell_length_a                    34.2800
_cell_length_b                    34.2800
_cell_length_c                    34.2800
_cell_angle_alpha                 90.0000
_cell_angle_beta                  90.0000
_cell_angle_gamma                 90.0000

loop_
_atom_site_label
_atom_site_fract_x
_atom_site_fract_y
_atom_site_fract_z
_atom_site_occupancy
O1       0.75000    0.75000    0.75000   1.00
Zn1      0.71720    0.78280    0.78280   1.00
Zn1      0.78280    0.71720    0.78280   1.00
Zn1      0.78280    0.78280    0.71720   1.00
Zn1      0.71720    0.71720    0.71720   1.00
O2       0.72650    0.77350    0.83820   1.00
O2       0.72650    0.83820    0.77350   1.00
O2       0.66180    0.77350    0.77350   1.00
O2       0.77350    0.72650    0.83820   1.00
O2       0.83820    0.72650    0.77350   1.00
O2       0.77350    0.66180    0.77350   1.00
O2       0.77350    0.83820    0.72650   1.00
O2       0.83820    0.77350    0.72650   1.00
O2       0.77350    0.77350    0.66180   1.00
O2       0.66180    0.72650    0.72650   1.00
O2       0.72650    0.66180    0.72650   1.00
O2       0.72650    0.72650    0.66180   1.00
C1       0.75000    0.75000    0.85520   1.00
C1       0.75000    0.85520    0.75000   1.00
C1       0.64480    0.75000    0.75000   1.00
C1       0.85520    0.75000    0.75000   1.00
C1       0.75000    0.64480    0.75000   1.00
C1       0.75000    0.75000    0.64480   1.00
O1       0.25000    0.25000    0.75000   1.00
Zn1      0.21720    0.28280    0.78280   1.00
Zn1      0.28280    0.21720    0.78280   1.00
Zn1      0.28280    0.28280    0.71720   1.00
Zn1      0.21720    0.21720    0.71720   1.00
O2       0.22650    0.27350    0.83820   1.00
O2       0.22650    0.33820    0.77350   1.00
O2       0.16180    0.27350    0.77350   1.00
O2       0.27350    0.22650    0.83820   1.00
O2       0.33820    0.22650    0.77350   1.00
O2       0.27350    0.16180    0.77350   1.00
O2       0.27350    0.33820    0.72650   1.00
O2       0.33820    0.27350    0.72650   1.00
O2       0.27350    0.27350    0.66180   1.00
O2       0.16180    0.22650    0.72650   1.00
O2       0.22650    0.16180    0.72650   1.00
O2       0.22650    0.22650    0.66180   1.00
C1       0.25000    0.25000    0.85520   1.00
C1       0.25000    0.35520    0.75000   1.00
C1       0.14480    0.25000    0.75000   1.00
C1       0.35520    0.25000    0.75000   1.00
C1       0.25000    0.14480    0.75000   1.00
C1       0.25000    0.25000    0.64480   1.00
O1       0.25000    0.75000    0.25000   1.00
Zn1      0.21720    0.78280    0.28280   1.00
Zn1      0.28280    0.71720    0.28280   1.00
Zn1      0.28280    0.78280    0.21720   1.00
Zn1      0.21720    0.71720    0.21720   1.00
O2       0.22650    0.77350    0.33820   1.00
O2       0.22650    0.83820    0.27350   1.00
O2       0.16180    0.77350    0.27350   1.00
O2       0.27350    0.72650    0.33820   1.00
O2       0.33820    0.72650    0.27350   1.00
O2       0.27350    0.66180    0.27350   1.00
O2       0.27350    0.83820    0.22650   1.00
O2       0.33820    0.77350    0.22650   1.00
O2       0.27350    0.77350    0.16180   1.00
O2       0.16180    0.72650    0.22650   1.00
O2       0.22650    0.66180    0.22650   1.00
O2       0.22650    0.72650    0.16180   1.00
C1       0.25000    0.75000    0.35520   1.00
C1       0.25000    0.85520    0.25000   1.00
C1       0.14480    0.75000    0.25000   1.00
C1       0.35520    0.75000    0.25000   1.00
C1       0.25000    0.64480    0.25000   1.00
C1       0.25000    0.75000    0.14480   1.00
O1       0.75000    0.25000    0.25000   1.00
Zn1      0.71720    0.28280    0.28280   1.00
Zn1      0.78280    0.21720    0.28280   1.00
Zn1      0.78280    0.28280    0.21720   1.00
Zn1      0.71720    0.21720    0.21720   1.00
O2       0.72650    0.27350    0.33820   1.00
O2       0.72650    0.33820    0.27350   1.00
O2       0.66180    0.27350    0.27350   1.00
O2       0.77350    0.22650    0.33820   1.00
O2       0.83820    0.22650    0.27350   1.00
O2       0.77350    0.16180    0.27350   1.00
O2       0.77350    0.33820    0.22650   1.00
O2       0.83820    0.27350    0.22650   1.00
O2       0.77350    0.27350    0.16180   1.00
O2       0.66180    0.22650    0.22650   1.00
O2       0.72650    0.16180    0.22650   1.00
O2       0.72650    0.22650    0.16180   1.00
C1       0.75000    0.25000    0.35520   1.00
C1       0.75000    0.35520    0.25000   1.00
C1       0.64480    0.25000    0.25000   1.00
C1       0.85520    0.25000    0.25000   1.00
C1       0.75000    0.14480    0.25000   1.00
C1       0.75000    0.25000    0.14480   1.00
O1       0.25000    0.25000    0.25000   1.00
Zn1      0.28280    0.21720    0.21720   1.00
Zn1      0.21720    0.28280    0.21720   1.00
Zn1      0.21720    0.21720    0.28280   1.00
Zn1      0.28280    0.28280    0.28280   1.00
O2       0.27350    0.22650    0.16180   1.00
O2       0.27350    0.16180    0.22650   1.00
O2       0.33820    0.22650    0.22650   1.00
O2       0.22650    0.27350    0.16180   1.00
O2       0.16180    0.27350    0.22650   1.00
O2       0.22650    0.33820    0.22650   1.00
O2       0.22650    0.16180    0.27350   1.00
O2       0.16180    0.22650    0.27350   1.00
O2       0.22650    0.22650    0.33820   1.00
O2       0.33820    0.27350    0.27350   1.00
O2       0.27350    0.33820    0.27350   1.00
O2       0.27350    0.27350    0.33820   1.00
C1       0.25000    0.25000    0.14480   1.00
C1       0.25000    0.14480    0.25000   1.00
C1       0.35520    0.25000    0.25000   1.00
C1       0.14480    0.25000    0.25000   1.00
C1       0.25000    0.35520    0.25000   1.00
C1       0.25000    0.25000    0.35520   1.00
O1       0.75000    0.75000    0.25000   1.00
Zn1      0.78280    0.71720    0.21720   1.00
Zn1      0.71720    0.78280    0.21720   1.00
Zn1      0.71720    0.71720    0.28280   1.00
Zn1      0.78280    0.78280    0.28280   1.00
O2       0.77350    0.72650    0.16180   1.00
O2       0.77350    0.66180    0.22650   1.00
O2       0.83820    0.72650    0.22650   1.00
O2       0.72650    0.77350    0.16180   1.00
O2       0.66180    0.77350    0.22650   1.00
O2       0.72650    0.83820    0.22650   1.00
O2       0.72650    0.66180    0.27350   1.00
O2       0.66180    0.72650    0.27350   1.00
O2       0.72650    0.72650    0.33820   1.00
O2       0.83820    0.77350    0.27350   1.00
O2       0.77350    0.83820    0.27350   1.00
O2       0.77350    0.77350    0.33820   1.00
C1       0.75000    0.75000    0.14480   1.00
C1       0.75000    0.64480    0.25000   1.00
C1       0.85520    0.75000    0.25000   1.00
C1       0.64480    0.75000    0.25000   1.00
C1       0.75000    0.85520    0.25000   1.00
C1       0.75000    0.75000    0.35520   1.00
O1       0.75000    0.25000    0.75000   1.00
Zn1      0.78280    0.21720    0.71720   1.00
Zn1      0.71720    0.28280    0.71720   1.00
Zn1      0.71720    0.21720    0.78280   1.00
Zn1      0.78280    0.28280    0.78280   1.00
O2       0.77350    0.22650    0.66180   1.00
O2       0.77350    0.16180    0.72650   1.00
O2       0.83820    0.22650    0.72650   1.00
O2       0.72650    0.27350    0.66180   1.00
O2       0.66180    0.27350    0.72650   1.00
O2       0.72650    0.33820    0.72650   1.00
O2       0.72650    0.16180    0.77350   1.00
O2       0.66180    0.22650    0.77350   1.00
O2       0.72650    0.22650    0.83820   1.00
O2       0.83820    0.27350    0.77350   1.00
O2       0.77350    0.33820    0.77350   1.00
O2       0.77350    0.27350    0.83820   1.00
C1       0.75000    0.25000    0.64480   1.00
C1       0.75000    0.14480    0.75000   1.00
C1       0.85520    0.25000    0.75000   1.00
C1       0.64480    0.25000    0.75000   1.00
C1       0.75000    0.35520    0.75000   1.00
C1       0.75000    0.25000    0.85520   1.00
O1       0.25000    0.75000    0.75000   1.00
Zn1      0.28280    0.71720    0.71720   1.00
Zn1      0.21720    0.78280    0.71720   1.00
Zn1      0.21720    0.71720    0.78280   1.00
Zn1      0.28280    0.78280    0.78280   1.00
O2       0.27350    0.72650    0.66180   1.00
O2       0.27350    0.66180    0.72650   1.00
O2       0.33820    0.72650    0.72650   1.00
O2       0.22650    0.77350    0.66180   1.00
O2       0.16180    0.77350    0.72650   1.00
O2       0.22650    0.83820    0.72650   1.00
O2       0.22650    0.66180    0.77350   1.00
O2       0.16180    0.72650    0.77350   1.00
O2       0.22650    0.72650    0.83820   1.00
O2       0.33820    0.77350    0.77350   1.00
O2       0.27350    0.83820    0.77350   1.00
O2       0.27350    0.77350    0.83820   1.00
C1       0.25000    0.75000    0.64480   1.00
C1       0.25000    0.64480    0.75000   1.00
C1       0.35520    0.75000    0.75000   1.00
C1       0.14480    0.75000    0.75000   1.00
C1       0.25000    0.85520    0.75000   1.00
C1       0.25000    0.75000    0.85520   1.00
O1       0.91500    0.91500    0.91500   1.00
Zn1      0.88220    0.94780    0.94780   1.00
Zn1      0.94780    0.88220    0.94780   1.00
Zn1      0.94780    0.94780    0.88220   1.00
Zn1      0.88220    0.88220    0.88220   1.00
O2       0.89150    0.93850    1.00320   1.00
O2       0.89150    1.00320    0.93850   1.00
O2       0.82680    0.93850    0.93850   1.00
O2       0.93850    0.89150    1.00320   1.00
O2       1.00320    0.89150    0.93850   1.00
O2       0.93850    0.82680    0.93850   1.00
O2       0.93850    1.00320    0.89150   1.00
O2       1.00320    0.93850    0.89150   1.00
O2       0.93850    0.93850    0.82680   1.00
O2       0.82680    0.89150    0.89150   1.00
O2       0.89150    0.82680    0.89150   1.00
O2       0.89150    0.89150    0.82680   1.00
C1       0.91500    0.91500    1.02020   1.00
C1       0.91500    1.02020    0.91500   1.00
C1       0.80980    0.91500    0.91500   1.00
C1       1.02020    0.91500    0.91500   1.00
C1       0.91500    0.80980    0.91500   1.00
C1       0.91500    0.91500    0.80980   1.00
O1       0.41500    0.41500    0.91500   1.00
Zn1      0.38220    0.44780    0.94780   1.00
Zn1      0.44780    0.38220    0.94780   1.00
Zn1      0.44780    0.44780    0.88220   1.00
Zn1      0.38220    0.38220    0.88220   1.00
O2       0.39150    0.43850    1.00320   1.00
O2       0.39150    0.50320    0.93850   1.00
O2       0.32680    0.43850    0.93850   1.00
O2       0.43850    0.39150    1.00320   1.00
O2       0.50320    0.39150    0.93850   1.00
O2       0.43850    0.32680    0.93850   1.00
O2       0.43850    0.50320    0.89150   1.00
O2       0.50320    0.43850    0.89150   1.00
O2       0.43850    0.43850    0.82680   1.00
O2       0.32680    0.39150    0.89150   1.00
O2       0.39150    0.32680    0.89150   1.00
O2       0.39150    0.39150    0.82680   1.00
C1       0.41500    0.41500    1.02020   1.00
C1       0.41500    0.52020    0.91500   1.00
C1       0.30980    0.41500    0.91500   1.00
C1       0.52020    0.41500    0.91500   1.00
C1       0.41500    0.30980    0.91500   1.00
C1       0.41500    0.41500    0.80980   1.00
O1       0.41500    0.91500    0.41500   1.00
Zn1      0.38220    0.94780    0.44780   1.00
Zn1      0.44780    0.88220    0.44780   1.00
Zn1      0.44780    0.94780    0.38220   1.00
Zn1      0.38220    0.88220    0.38220   1.00
O2       0.39150    0.93850    0.50320   1.00
O2       0.39150    1.00320    0.43850   1.00
O2       0.32680    0.93850    0.43850   1.00
O2       0.43850    0.89150    0.50320   1.00
O2       0.50320    0.89150    0.43850   1.00
O2       0.43850    0.82680    0.43850   1.00
O2       0.43850    1.00320    0.39150   1.00
O2       0.50320    0.93850    0.39150   1.00
O2       0.43850    0.93850    0.32680   1.00
O2       0.32680    0.89150    0.39150   1.00
O2       0.39150    0.82680    0.39150   1.00
O2       0.39150    0.89150    0.32680   1.00
C1       0.41500    0.91500    0.52020   1.00
C1       0.41500    1.02020    0.41500   1.00
C1       0.30980    0.91500    0.41500   1.00
C1       0.52020    0.91500    0.41500   1.00
C1       0.41500    0.80980    0.41500   1.00
C1       0.41500    0.91500    0.30980   1.00
O1       0.91500    0.41500    0.41500   1.00
Zn1      0.88220    0.44780    0.44780   1.00
Zn1      0.94780    0.38220    0.44780   1.00
Zn1      0.94780    0.44780    0.38220   1.00
Zn1      0.88220    0.38220    0.38220   1.00
O2       0.89150    0.43850    0.50320   1.00
O2       0.89150    0.50320    0.43850   1.00
O2       0.82680    0.43850    0.43850   1.00
O2       0.93850    0.39150    0.50320   1.00
O2       1.00320    0.39150    0.43850   1.00
O2       0.93850    0.32680    0.43850   1.00
O2       0.93850    0.50320    0.39150   1.00
O2       1.00320    0.43850    0.39150   1.00
O2       0.93850    0.43850    0.32680   1.00
O2       0.82680    0.39150    0.39150   1.00
O2       0.89150    0.32680    0.39150   1.00
O2       0.89150    0.39150    0.32680   1.00
C1       0.91500    0.41500    0.52020   1.00
C1       0.91500    0.52020    0.41500   1.00
C1       0.80980    0.41500    0.41500   1.00
C1       1.02020    0.41500    0.41500   1.00
C1       0.91500    0.30980    0.41500   1.00
C1       0.91500    0.41500    0.30980   1.00
O1       0.41500    0.41500    0.41500   1.00
Zn1      0.44780    0.38220    0.38220   1.00
Zn1      0.38220    0.44780    0.38220   1.00
Zn1      0.38220    0.38220    0.44780   1.00
Zn1      0.44780    0.44780    0.44780   1.00
O2       0.43850    0.39150    0.32680   1.00
O2       0.43850    0.32680    0.39150   1.00
O2       0.50320    0.39150    0.39150   1.00
O2       0.39150    0.43850    0.32680   1.00
O2       0.32680    0.43850    0.39150   1.00
O2       0.39150    0.50320    0.39150   1.00
O2       0.39150    0.32680    0.43850   1.00
O2       0.32680    0.39150    0.43850   1.00
O2       0.39150    0.39150    0.50320   1.00
O2       0.50320    0.43850    0.43850   1.00
O2       0.43850    0.50320    0.43850   1.00
O2       0.43850    0.43850    0.50320   1.00
C1       0.41500    0.41500    0.30980   1.00
C1       0.41500    0.30980    0.41500   1.00
C1       0.52020    0.41500    0.41500   1.00
C1       0.30980    0.41500    0.41500   1.00
C1       0.41500    0.52020    0.41500   1.00
C1       0.41500    0.41500    0.52020   1.00
O1       0.91500    0.91500    0.41500   1.00
Zn1      0.94780    0.88220    0.38220   1.00
Zn1      0.88220    0.94780    0.38220   1.00
Zn1      0.88220    0.88220    0.44780   1.00
Zn1      0.94780    0.94780    0.44780   1.00
O2       0.93850    0.89150    0.32680   1.00
O2       0.93850    0.82680    0.39150   1.00
O2       1.00320    0.89150    0.39150   1.00
O2       0.89150    0.93850    0.32680   1.00
O2       0.82680    0.93850    0.39150   1.00
O2       0.89150    1.00320    0.39150   1.00
O2       0.89150    0.82680    0.43850   1.00
O2       0.82680    0.89150    0.43850   1.00
O2       0.89150    0.89150    0.50320   1.00
O2       1.00320    0.93850    0.43850   1.00
O2       0.93850    1.00320    0.43850   1.00
O2       0.93850    0.93850    0.50320   1.00
C1       0.91500    0.91500    0.30980   1.00
C1       0.91500    0.80980    0.41500   1.00
C1       1.02020    0.91500    0.41500   1.00
C1       0.80980    0.91500    0.41500   1.00
C1       0.91500    1.02020    0.41500   1.00
C1       0.91500    0.91500    0.52020   1.00
O1       0.91500    0.41500    0.91500   1.00
Zn1      0.94780    0.38220    0.88220   1.00
Zn1      0.88220    0.44780    0.88220   1.00
Zn1      0.88220    0.38220    0.94780   1.00
Zn1      0.94780    0.44780    0.94780   1.00
O2       0.93850    0.39150    0.82680   1.00
O2       0.93850    0.32680    0.89150   1.00
O2       1.00320    0.39150    0.89150   1.00
O2       0.89150    0.43850    0.82680   1.00
O2       0.82680    0.43850    0.89150   1.00
O2       0.89150    0.50320    0.89150   1.00
O2       0.89150    0.32680    0.93850   1.00
O2       0.82680    0.39150    0.93850   1.00
O2       0.89150    0.39150    1.00320   1.00
O2       1.00320    0.43850    0.93850   1.00
O2       0.93850    0.50320    0.93850   1.00
O2       0.93850    0.43850    1.00320   1.00
C1       0.91500    0.41500    0.80980   1.00
C1       0.91500    0.30980    0.91500   1.00
C1       1.02020    0.41500    0.91500   1.00
C1       0.80980    0.41500    0.91500   1.00
C1       0.91500    0.52020    0.91500   1.00
C1       0.91500    0.41500    1.02020   1.00
O1       0.41500    0.91500    0.91500   1.00
Zn1      0.44780    0.88220    0.88220   1.00
Zn1      0.38220    0.94780    0.88220   1.00
Zn1      0.38220    0.88220    0.94780   1.00
Zn1      0.44780    0.94780    0.94780   1.00
O2       0.43850    0.89150    0.82680   1.00
O2       0.43850    0.82680    0.89150   1.00
O2       0.50320    0.89150    0.89150   1.00
O2       0.39150    0.93850    0.82680   1.00
O2       0.32680    0.93850    0.89150   1.00
O2       0.39150    1.00320    0.89150   1.00
O2       0.39150    0.82680    0.93850   1.00
O2       0.32680    0.89150    0.93850   1.00
O2       0.39150    0.89150    1.00320   1.00
O2       0.50320    0.93850    0.93850   1.00
O2       0.43850    1.00320    0.93850   1.00
O2       0.43850    0.93850    1.00320   1.00
C1       0.41500    0.91500    0.80980   1.00
C1       0.41500    0.80980    0.91500   1.00
C1       0.52020    0.91500    0.91500   1.00
C1       0.30980    0.91500    0.91500   1.00
C1       0.41500    1.02020    0.91500   1.00
C1       0.41500    0.91500    1.02020   1.00
C4       0.74669    0.75346    0.98025   1.00
C4       0.74695    0.75499    1.02191   1.00
C3       0.71925    0.73058    0.95897   1.00
C3       0.71738    0.73711    1.04504   1.00
C3       0.77476    0.77542    0.95854   1.00
C3       0.77770    0.77509    1.04170   1.00
C2       0.74490    0.75185    0.89595   1.00
C2       0.74847    0.75642    1.10622   1.00
C3       0.71820    0.72990    0.91811   1.00
C3       0.71816    0.73759    1.08591   1.00
C3       0.77256    0.77411    0.91696   1.00
C3       0.77754    0.77472    1.08336   1.00
H1       0.69924    0.71325    0.97237   1.00
H1       0.69396    0.72339    1.03306   1.00
C5       0.80413    0.79771    0.97835   1.00
C5       0.80739    0.79504    1.01998   1.00
H1       0.69759    0.71293    0.90451   1.00
H1       0.69605    0.72401    1.10091   1.00
H1       0.79185    0.78954    0.90052   1.00
H1       0.79905    0.78846    1.09848   1.00
C6       0.83097    0.82404    0.95515   1.00
C6       0.84195    0.81261    1.04119   1.00
H2       0.81387    0.83978    0.93345   1.00
H2       0.85225    0.79200    1.06310   1.00
H2       0.84227    0.84780    0.97286   1.00
H2       0.86730    0.81505    1.02228   1.00
C6       0.86605    0.80173    0.93606   1.00
C6       0.83298    0.85359    1.05942   1.00
H2       0.85558    0.77461    0.92292   1.00
H2       0.80453    0.85287    1.07383   1.00
C6       0.89060    0.82395    0.90459   1.00
C6       0.86326    0.87058    1.08911   1.00
H2       0.88568    0.79267    0.95949   1.00
H2       0.82973    0.87437    1.03546   1.00
C6       0.86630    0.83245    0.86735   1.00
C6       0.86506    0.84599    1.12708   1.00
C6       0.90721    0.86277    0.92074   1.00
C6       0.90463    0.87321    1.07107   1.00
C6       0.92555    0.79778    0.89245   1.00
C6       0.85031    0.91247    1.10054   1.00
H2       0.85363    0.80568    0.85558   1.00
H2       0.83617    0.84304    1.14020   1.00
H2       0.84255    0.85270    0.87330   1.00
H2       0.87630    0.81679    1.12154   1.00
H2       0.88436    0.84549    0.84459   1.00
H2       0.88419    0.85954    1.14863   1.00
H2       0.92652    0.87664    0.89955   1.00
H2       0.92489    0.88764    1.09098   1.00
H2       0.88383    0.88333    0.92725   1.00
H2       0.91626    0.84425    1.06494   1.00
H2       0.92377    0.85771    0.94745   1.00
H2       0.90404    0.88970    1.04385   1.00
H2       0.91539    0.77008    0.88042   1.00
H2       0.82135    0.91221    1.11383   1.00
H2       0.94347    0.81197    0.87025   1.00
H2       0.87046    0.92551    1.12149   1.00
H2       0.94429    0.79140    0.91739   1.00
H2       0.84924    0.93149    1.07502   1.00
C4       0.75346    0.98025    0.74669   1.00
C4       0.75499    1.02191    0.74695   1.00
C3       0.73058    0.95897    0.71925   1.00
C3       0.73711    1.04504    0.71738   1.00
C3       0.77542    0.95854    0.77476   1.00
C3       0.77509    1.04170    0.77770   1.00
C2       0.75185    0.89595    0.74490   1.00
C2       0.75642    1.10622    0.74847   1.00
C3       0.72990    0.91811    0.71820   1.00
C3       0.73759    1.08591    0.71816   1.00
C3       0.77411    0.91696    0.77256   1.00
C3       0.77472    1.08336    0.77754   1.00
H1       0.71325    0.97237    0.69924   1.00
H1       0.72339    1.03306    0.69396   1.00
C5       0.79771    0.97835    0.80413   1.00
C5       0.79504    1.01998    0.80739   1.00
H1       0.71293    0.90451    0.69759   1.00
H1       0.72401    1.10091    0.69605   1.00
H1       0.78954    0.90052    0.79185   1.00
H1       0.78846    1.09848    0.79905   1.00
C6       0.82404    0.95515    0.83097   1.00
C6       0.81261    1.04119    0.84195   1.00
H2       0.83978    0.93345    0.81387   1.00
H2       0.79200    1.06310    0.85225   1.00
H2       0.84780    0.97286    0.84227   1.00
H2       0.81505    1.02228    0.86730   1.00
C6       0.80173    0.93606    0.86605   1.00
C6       0.85359    1.05942    0.83298   1.00
H2       0.77461    0.92292    0.85558   1.00
H2       0.85287    1.07383    0.80453   1.00
C6       0.82395    0.90459    0.89060   1.00
C6       0.87058    1.08911    0.86326   1.00
H2       0.79267    0.95949    0.88568   1.00
H2       0.87437    1.03546    0.82973   1.00
C6       0.83245    0.86735    0.86630   1.00
C6       0.84599    1.12708    0.86506   1.00
C6       0.86277    0.92074    0.90721   1.00
C6       0.87321    1.07107    0.90463   1.00
C6       0.79778    0.89245    0.92555   1.00
C6       0.91247    1.10054    0.85031   1.00
H2       0.80568    0.85558    0.85363   1.00
H2       0.84304    1.14020    0.83617   1.00
H2       0.85270    0.87330    0.84255   1.00
H2       0.81679    1.12154    0.87630   1.00
H2       0.84549    0.84459    0.88436   1.00
H2       0.85954    1.14863    0.88419   1.00
H2       0.87664    0.89955    0.92652   1.00
H2       0.88764    1.09098    0.92489   1.00
H2       0.88333    0.92725    0.88383   1.00
H2       0.84425    1.06494    0.91626   1.00
H2       0.85771    0.94745    0.92377   1.00
H2       0.88970    1.04385    0.90404   1.00
H2       0.77008    0.88042    0.91539   1.00
H2       0.91221    1.11383    0.82135   1.00
H2       0.81197    0.87025    0.94347   1.00
H2       0.92551    1.12149    0.87046   1.00
H2       0.79140    0.91739    0.94429   1.00
H2       0.93149    1.07502    0.84924   1.00
C4       0.51975    0.74669    0.74654   1.00
C4       0.47809    0.74695    0.74501   1.00
C3       0.54103    0.71925    0.76942   1.00
C3       0.45496    0.71738    0.76289   1.00
C3       0.54146    0.77476    0.72458   1.00
C3       0.45830    0.77770    0.72491   1.00
C2       0.60405    0.74490    0.74815   1.00
C2       0.39378    0.74847    0.74358   1.00
C3       0.58189    0.71820    0.77010   1.00
C3       0.41409    0.71816    0.76241   1.00
C3       0.58304    0.77256    0.72589   1.00
C3       0.41664    0.77754    0.72528   1.00
H1       0.52763    0.69924    0.78675   1.00
H1       0.46694    0.69396    0.77661   1.00
C5       0.52165    0.80413    0.70229   1.00
C5       0.48002    0.80739    0.70496   1.00
H1       0.59549    0.69759    0.78707   1.00
H1       0.39909    0.69605    0.77599   1.00
H1       0.59948    0.79185    0.71046   1.00
H1       0.40152    0.79905    0.71154   1.00
C6       0.54485    0.83097    0.67596   1.00
C6       0.45881    0.84195    0.68739   1.00
H2       0.56655    0.81387    0.66022   1.00
H2       0.43690    0.85225    0.70800   1.00
H2       0.52714    0.84227    0.65220   1.00
H2       0.47772    0.86730    0.68495   1.00
C6       0.56394    0.86605    0.69827   1.00
C6       0.44058    0.83298    0.64641   1.00
H2       0.57708    0.85558    0.72539   1.00
H2       0.42617    0.80453    0.64713   1.00
C6       0.59541    0.89060    0.67605   1.00
C6       0.41089    0.86326    0.62942   1.00
H2       0.54051    0.88568    0.70733   1.00
H2       0.46454    0.82973    0.62563   1.00
C6       0.63265    0.86630    0.66755   1.00
C6       0.37292    0.86506    0.65401   1.00
C6       0.57926    0.90721    0.63723   1.00
C6       0.42893    0.90463    0.62679   1.00
C6       0.60755    0.92555    0.70222   1.00
C6       0.39946    0.85031    0.58753   1.00
H2       0.64442    0.85363    0.69432   1.00
H2       0.35980    0.83617    0.65696   1.00
H2       0.62670    0.84255    0.64730   1.00
H2       0.37846    0.87630    0.68321   1.00
H2       0.65541    0.88436    0.65451   1.00
H2       0.35137    0.88419    0.64046   1.00
H2       0.60045    0.92652    0.62336   1.00
H2       0.40902    0.92489    0.61236   1.00
H2       0.57275    0.88383    0.61667   1.00
H2       0.43506    0.91626    0.65575   1.00
H2       0.55255    0.92377    0.64229   1.00
H2       0.45615    0.90404    0.61030   1.00
H2       0.61958    0.91539    0.72992   1.00
H2       0.38617    0.82135    0.58779   1.00
H2       0.62975    0.94347    0.68803   1.00
H2       0.37851    0.87046    0.57449   1.00
H2       0.58261    0.94429    0.70860   1.00
H2       0.42498    0.84924    0.56851   1.00
C4       0.98025    0.74669    0.75346   1.00
C4       1.02191    0.74695    0.75499   1.00
C3       0.95897    0.71925    0.73058   1.00
C3       1.04504    0.71738    0.73711   1.00
C3       0.95854    0.77476    0.77542   1.00
C3       1.04170    0.77770    0.77509   1.00
C2       0.89595    0.74490    0.75185   1.00
C2       1.10622    0.74847    0.75642   1.00
C3       0.91811    0.71820    0.72990   1.00
C3       1.08591    0.71816    0.73759   1.00
C3       0.91696    0.77256    0.77411   1.00
C3       1.08336    0.77754    0.77472   1.00
H1       0.97237    0.69924    0.71325   1.00
H1       1.03306    0.69396    0.72339   1.00
C5       0.97835    0.80413    0.79771   1.00
C5       1.01998    0.80739    0.79504   1.00
H1       0.90451    0.69759    0.71293   1.00
H1       1.10091    0.69605    0.72401   1.00
H1       0.90052    0.79185    0.78954   1.00
H1       1.09848    0.79905    0.78846   1.00
C6       0.95515    0.83097    0.82404   1.00
C6       1.04119    0.84195    0.81261   1.00
H2       0.93345    0.81387    0.83978   1.00
H2       1.06310    0.85225    0.79200   1.00
H2       0.97286    0.84227    0.84780   1.00
H2       1.02228    0.86730    0.81505   1.00
C6       0.93606    0.86605    0.80173   1.00
C6       1.05942    0.83298    0.85359   1.00
H2       0.92292    0.85558    0.77461   1.00
H2       1.07383    0.80453    0.85287   1.00
C6       0.90459    0.89060    0.82395   1.00
C6       1.08911    0.86326    0.87058   1.00
H2       0.95949    0.88568    0.79267   1.00
H2       1.03546    0.82973    0.87437   1.00
C6       0.86735    0.86630    0.83245   1.00
C6       1.12708    0.86506    0.84599   1.00
C6       0.92074    0.90721    0.86277   1.00
C6       1.07107    0.90463    0.87321   1.00
C6       0.89245    0.92555    0.79778   1.00
C6       1.10054    0.85031    0.91247   1.00
H2       0.85558    0.85363    0.80568   1.00
H2       1.14020    0.83617    0.84304   1.00
H2       0.87330    0.84255    0.85270   1.00
H2       1.12154    0.87630    0.81679   1.00
H2       0.84459    0.88436    0.84549   1.00
H2       1.14863    0.88419    0.85954   1.00
H2       0.89955    0.92652    0.87664   1.00
H2       1.09098    0.92489    0.88764   1.00
H2       0.92725    0.88383    0.88333   1.00
H2       1.06494    0.91626    0.84425   1.00
H2       0.94745    0.92377    0.85771   1.00
H2       1.04385    0.90404    0.88970   1.00
H2       0.88042    0.91539    0.77008   1.00
H2       1.11383    0.82135    0.91221   1.00
H2       0.87025    0.94347    0.81197   1.00
H2       1.12149    0.87046    0.92551   1.00
H2       0.91739    0.94429    0.79140   1.00
H2       1.07502    0.84924    0.93149   1.00
C4       0.74654    0.51975    0.74669   1.00
C4       0.74501    0.47809    0.74695   1.00
C3       0.76942    0.54103    0.71925   1.00
C3       0.76289    0.45496    0.71738   1.00
C3       0.72458    0.54146    0.77476   1.00
C3       0.72491    0.45830    0.77770   1.00
C2       0.74815    0.60405    0.74490   1.00
C2       0.74358    0.39378    0.74847   1.00
C3       0.77010    0.58189    0.71820   1.00
C3       0.76241    0.41409    0.71816   1.00
C3       0.72589    0.58304    0.77256   1.00
C3       0.72528    0.41664    0.77754   1.00
H1       0.78675    0.52763    0.69924   1.00
H1       0.77661    0.46694    0.69396   1.00
C5       0.70229    0.52165    0.80413   1.00
C5       0.70496    0.48002    0.80739   1.00
H1       0.78707    0.59549    0.69759   1.00
H1       0.77599    0.39909    0.69605   1.00
H1       0.71046    0.59948    0.79185   1.00
H1       0.71154    0.40152    0.79905   1.00
C6       0.67596    0.54485    0.83097   1.00
C6       0.68739    0.45881    0.84195   1.00
H2       0.66022    0.56655    0.81387   1.00
H2       0.70800    0.43690    0.85225   1.00
H2       0.65220    0.52714    0.84227   1.00
H2       0.68495    0.47772    0.86730   1.00
C6       0.69827    0.56394    0.86605   1.00
C6       0.64641    0.44058    0.83298   1.00
H2       0.72539    0.57708    0.85558   1.00
H2       0.64713    0.42617    0.80453   1.00
C6       0.67605    0.59541    0.89060   1.00
C6       0.62942    0.41089    0.86326   1.00
H2       0.70733    0.54051    0.88568   1.00
H2       0.62563    0.46454    0.82973   1.00
C6       0.66755    0.63265    0.86630   1.00
C6       0.65401    0.37292    0.86506   1.00
C6       0.63723    0.57926    0.90721   1.00
C6       0.62679    0.42893    0.90463   1.00
C6       0.70222    0.60755    0.92555   1.00
C6       0.58753    0.39946    0.85031   1.00
H2       0.69432    0.64442    0.85363   1.00
H2       0.65696    0.35980    0.83617   1.00
H2       0.64730    0.62670    0.84255   1.00
H2       0.68321    0.37846    0.87630   1.00
H2       0.65451    0.65541    0.88436   1.00
H2       0.64046    0.35137    0.88419   1.00
H2       0.62336    0.60045    0.92652   1.00
H2       0.61236    0.40902    0.92489   1.00
H2       0.61667    0.57275    0.88383   1.00
H2       0.65575    0.43506    0.91626   1.00
H2       0.64229    0.55255    0.92377   1.00
H2       0.61030    0.45615    0.90404   1.00
H2       0.72992    0.61958    0.91539   1.00
H2       0.58779    0.38617    0.82135   1.00
H2       0.68803    0.62975    0.94347   1.00
H2       0.57449    0.37851    0.87046   1.00
H2       0.70860    0.58261    0.94429   1.00
H2       0.56851    0.42498    0.84924   1.00
C4       0.74669    0.74654    0.51975   1.00
C4       0.74695    0.74501    0.47809   1.00
C3       0.71925    0.76942    0.54103   1.00
C3       0.71738    0.76289    0.45496   1.00
C3       0.77476    0.72458    0.54146   1.00
C3       0.77770    0.72491    0.45830   1.00
C2       0.74490    0.74815    0.60405   1.00
C2       0.74847    0.74358    0.39378   1.00
C3       0.71820    0.77010    0.58189   1.00
C3       0.71816    0.76241    0.41409   1.00
C3       0.77256    0.72589    0.58304   1.00
C3       0.77754    0.72528    0.41664   1.00
H1       0.69924    0.78675    0.52763   1.00
H1       0.69396    0.77661    0.46694   1.00
C5       0.80413    0.70229    0.52165   1.00
C5       0.80739    0.70496    0.48002   1.00
H1       0.69759    0.78707    0.59549   1.00
H1       0.69605    0.77599    0.39909   1.00
H1       0.79185    0.71046    0.59948   1.00
H1       0.79905    0.71154    0.40152   1.00
C6       0.83097    0.67596    0.54485   1.00
C6       0.84195    0.68739    0.45881   1.00
H2       0.81387    0.66022    0.56655   1.00
H2       0.85225    0.70800    0.43690   1.00
H2       0.84227    0.65220    0.52714   1.00
H2       0.86730    0.68495    0.47772   1.00
C6       0.86605    0.69827    0.56394   1.00
C6       0.83298    0.64641    0.44058   1.00
H2       0.85558    0.72539    0.57708   1.00
H2       0.80453    0.64713    0.42617   1.00
C6       0.89060    0.67605    0.59541   1.00
C6       0.86326    0.62942    0.41089   1.00
H2       0.88568    0.70733    0.54051   1.00
H2       0.82973    0.62563    0.46454   1.00
C6       0.86630    0.66755    0.63265   1.00
C6       0.86506    0.65401    0.37292   1.00
C6       0.90721    0.63723    0.57926   1.00
C6       0.90463    0.62679    0.42893   1.00
C6       0.92555    0.70222    0.60755   1.00
C6       0.85031    0.58753    0.39946   1.00
H2       0.85363    0.69432    0.64442   1.00
H2       0.83617    0.65696    0.35980   1.00
H2       0.84255    0.64730    0.62670   1.00
H2       0.87630    0.68321    0.37846   1.00
H2       0.88436    0.65451    0.65541   1.00
H2       0.88419    0.64046    0.35137   1.00
H2       0.92652    0.62336    0.60045   1.00
H2       0.92489    0.61236    0.40902   1.00
H2       0.88383    0.61667    0.57275   1.00
H2       0.91626    0.65575    0.43506   1.00
H2       0.92377    0.64229    0.55255   1.00
H2       0.90404    0.61030    0.45615   1.00
H2       0.91539    0.72992    0.61958   1.00
H2       0.82135    0.58779    0.38617   1.00
H2       0.94347    0.68803    0.62975   1.00
H2       0.87046    0.57449    0.37851   1.00
H2       0.94429    0.70860    0.58261   1.00
H2       0.84924    0.56851    0.42498   1.00
C4       0.24669    0.25346    0.98025   1.00
C4       0.24695    0.25499    1.02191   1.00
C3       0.21925    0.23058    0.95897   1.00
C3       0.21738    0.23711    1.04504   1.00
C3       0.27476    0.27542    0.95854   1.00
C3       0.27770    0.27509    1.04170   1.00
C2       0.24490    0.25185    0.89595   1.00
C2       0.24847    0.25642    1.10622   1.00
C3       0.21820    0.22990    0.91811   1.00
C3       0.21816    0.23759    1.08591   1.00
C3       0.27256    0.27411    0.91696   1.00
C3       0.27754    0.27472    1.08336   1.00
H1       0.19924    0.21325    0.97237   1.00
H1       0.19396    0.22339    1.03306   1.00
C5       0.30413    0.29771    0.97835   1.00
C5       0.30739    0.29504    1.01998   1.00
H1       0.19759    0.21293    0.90451   1.00
H1       0.19605    0.22401    1.10091   1.00
H1       0.29185    0.28954    0.90052   1.00
H1       0.29905    0.28846    1.09848   1.00
C6       0.33097    0.32404    0.95515   1.00
C6       0.34195    0.31261    1.04119   1.00
H2       0.31387    0.33978    0.93345   1.00
H2       0.35225    0.29200    1.06310   1.00
H2       0.34227    0.34780    0.97286   1.00
H2       0.36730    0.31505    1.02228   1.00
C6       0.36605    0.30173    0.93606   1.00
C6       0.33298    0.35359    1.05942   1.00
H2       0.35558    0.27461    0.92292   1.00
H2       0.30453    0.35287    1.07383   1.00
C6       0.39060    0.32395    0.90459   1.00
C6       0.36326    0.37058    1.08911   1.00
H2       0.38568    0.29267    0.95949   1.00
H2       0.32973    0.37437    1.03546   1.00
C6       0.36630    0.33245    0.86735   1.00
C6       0.36506    0.34599    1.12708   1.00
C6       0.40721    0.36277    0.92074   1.00
C6       0.40463    0.37321    1.07107   1.00
C6       0.42555    0.29778    0.89245   1.00
C6       0.35031    0.41247    1.10054   1.00
H2       0.35363    0.30568    0.85558   1.00
H2       0.33617    0.34304    1.14020   1.00
H2       0.34255    0.35270    0.87330   1.00
H2       0.37630    0.31679    1.12154   1.00
H2       0.38436    0.34549    0.84459   1.00
H2       0.38419    0.35954    1.14863   1.00
H2       0.42652    0.37664    0.89955   1.00
H2       0.42489    0.38764    1.09098   1.00
H2       0.38383    0.38333    0.92725   1.00
H2       0.41626    0.34425    1.06494   1.00
H2       0.42377    0.35771    0.94745   1.00
H2       0.40404    0.38970    1.04385   1.00
H2       0.41539    0.27008    0.88042   1.00
H2       0.32135    0.41221    1.11383   1.00
H2       0.44347    0.31197    0.87025   1.00
H2       0.37046    0.42551    1.12149   1.00
H2       0.44429    0.29140    0.91739   1.00
H2       0.34924    0.43149    1.07502   1.00
C4       0.25346    0.48025    0.74669   1.00
C4       0.25499    0.52191    0.74695   1.00
C3       0.23058    0.45897    0.71925   1.00
C3       0.23711    0.54504    0.71738   1.00
C3       0.27542    0.45854    0.77476   1.00
C3       0.27509    0.54170    0.77770   1.00
C2       0.25185    0.39595    0.74490   1.00
C2       0.25642    0.60622    0.74847   1.00
C3       0.22990    0.41811    0.71820   1.00
C3       0.23759    0.58591    0.71816   1.00
C3       0.27411    0.41696    0.77256   1.00
C3       0.27472    0.58336    0.77754   1.00
H1       0.21325    0.47237    0.69924   1.00
H1       0.22339    0.53306    0.69396   1.00
C5       0.29771    0.47835    0.80413   1.00
C5       0.29504    0.51998    0.80739   1.00
H1       0.21293    0.40451    0.69759   1.00
H1       0.22401    0.60091    0.69605   1.00
H1       0.28954    0.40052    0.79185   1.00
H1       0.28846    0.59848    0.79905   1.00
C6       0.32404    0.45515    0.83097   1.00
C6       0.31261    0.54119    0.84195   1.00
H2       0.33978    0.43345    0.81387   1.00
H2       0.29200    0.56310    0.85225   1.00
H2       0.34780    0.47286    0.84227   1.00
H2       0.31505    0.52228    0.86730   1.00
C6       0.30173    0.43606    0.86605   1.00
C6       0.35359    0.55942    0.83298   1.00
H2       0.27461    0.42292    0.85558   1.00
H2       0.35287    0.57383    0.80453   1.00
C6       0.32395    0.40459    0.89060   1.00
C6       0.37058    0.58911    0.86326   1.00
H2       0.29267    0.45949    0.88568   1.00
H2       0.37437    0.53546    0.82973   1.00
C6       0.33245    0.36735    0.86630   1.00
C6       0.34599    0.62708    0.86506   1.00
C6       0.36277    0.42074    0.90721   1.00
C6       0.37321    0.57107    0.90463   1.00
C6       0.29778    0.39245    0.92555   1.00
C6       0.41247    0.60054    0.85031   1.00
H2       0.30568    0.35558    0.85363   1.00
H2       0.34304    0.64020    0.83617   1.00
H2       0.35270    0.37330    0.84255   1.00
H2       0.31679    0.62154    0.87630   1.00
H2       0.34549    0.34459    0.88436   1.00
H2       0.35954    0.64863    0.88419   1.00
H2       0.37664    0.39955    0.92652   1.00
H2       0.38764    0.59098    0.92489   1.00
H2       0.38333    0.42725    0.88383   1.00
H2       0.34425    0.56494    0.91626   1.00
H2       0.35771    0.44745    0.92377   1.00
H2       0.38970    0.54385    0.90404   1.00
H2       0.27008    0.38042    0.91539   1.00
H2       0.41221    0.61383    0.82135   1.00
H2       0.31197    0.37025    0.94347   1.00
H2       0.42551    0.62149    0.87046   1.00
H2       0.29140    0.41739    0.94429   1.00
H2       0.43149    0.57502    0.84924   1.00
C4       0.01975    0.24669    0.74654   1.00
C4       -0.02191   0.24695    0.74501   1.00
C3       0.04103    0.21925    0.76942   1.00
C3       -0.04504   0.21738    0.76289   1.00
C3       0.04146    0.27476    0.72458   1.00
C3       -0.04170   0.27770    0.72491   1.00
C2       0.10405    0.24490    0.74815   1.00
C2       -0.10622   0.24847    0.74358   1.00
C3       0.08189    0.21820    0.77010   1.00
C3       -0.08591   0.21816    0.76241   1.00
C3       0.08304    0.27256    0.72589   1.00
C3       -0.08336   0.27754    0.72528   1.00
H1       0.02763    0.19924    0.78675   1.00
H1       -0.03306   0.19396    0.77661   1.00
C5       0.02165    0.30413    0.70229   1.00
C5       -0.01998   0.30739    0.70496   1.00
H1       0.09549    0.19759    0.78707   1.00
H1       -0.10091   0.19605    0.77599   1.00
H1       0.09948    0.29185    0.71046   1.00
H1       -0.09848   0.29905    0.71154   1.00
C6       0.04485    0.33097    0.67596   1.00
C6       -0.04119   0.34195    0.68739   1.00
H2       0.06655    0.31387    0.66022   1.00
H2       -0.06310   0.35225    0.70800   1.00
H2       0.02714    0.34227    0.65220   1.00
H2       -0.02228   0.36730    0.68495   1.00
C6       0.06394    0.36605    0.69827   1.00
C6       -0.05942   0.33298    0.64641   1.00
H2       0.07708    0.35558    0.72539   1.00
H2       -0.07383   0.30453    0.64713   1.00
C6       0.09541    0.39060    0.67605   1.00
C6       -0.08911   0.36326    0.62942   1.00
H2       0.04051    0.38568    0.70733   1.00
H2       -0.03546   0.32973    0.62563   1.00
C6       0.13265    0.36630    0.66755   1.00
C6       -0.12708   0.36506    0.65401   1.00
C6       0.07926    0.40721    0.63723   1.00
C6       -0.07107   0.40463    0.62679   1.00
C6       0.10755    0.42555    0.70222   1.00
C6       -0.10054   0.35031    0.58753   1.00
H2       0.14442    0.35363    0.69432   1.00
H2       -0.14020   0.33617    0.65696   1.00
H2       0.12670    0.34255    0.64730   1.00
H2       -0.12154   0.37630    0.68321   1.00
H2       0.15541    0.38436    0.65451   1.00
H2       -0.14863   0.38419    0.64046   1.00
H2       0.10045    0.42652    0.62336   1.00
H2       -0.09098   0.42489    0.61236   1.00
H2       0.07275    0.38383    0.61667   1.00
H2       -0.06494   0.41626    0.65575   1.00
H2       0.05255    0.42377    0.64229   1.00
H2       -0.04385   0.40404    0.61030   1.00
H2       0.11958    0.41539    0.72992   1.00
H2       -0.11383   0.32135    0.58779   1.00
H2       0.12975    0.44347    0.68803   1.00
H2       -0.12149   0.37046    0.57449   1.00
H2       0.08261    0.44429    0.70860   1.00
H2       -0.07502   0.34924    0.56851   1.00
C4       0.48025    0.24669    0.75346   1.00
C4       0.52191    0.24695    0.75499   1.00
C3       0.45897    0.21925    0.73058   1.00
C3       0.54504    0.21738    0.73711   1.00
C3       0.45854    0.27476    0.77542   1.00
C3       0.54170    0.27770    0.77509   1.00
C2       0.39595    0.24490    0.75185   1.00
C2       0.60622    0.24847    0.75642   1.00
C3       0.41811    0.21820    0.72990   1.00
C3       0.58591    0.21816    0.73759   1.00
C3       0.41696    0.27256    0.77411   1.00
C3       0.58336    0.27754    0.77472   1.00
H1       0.47237    0.19924    0.71325   1.00
H1       0.53306    0.19396    0.72339   1.00
C5       0.47835    0.30413    0.79771   1.00
C5       0.51998    0.30739    0.79504   1.00
H1       0.40451    0.19759    0.71293   1.00
H1       0.60091    0.19605    0.72401   1.00
H1       0.40052    0.29185    0.78954   1.00
H1       0.59848    0.29905    0.78846   1.00
C6       0.45515    0.33097    0.82404   1.00
C6       0.54119    0.34195    0.81261   1.00
H2       0.43345    0.31387    0.83978   1.00
H2       0.56310    0.35225    0.79200   1.00
H2       0.47286    0.34227    0.84780   1.00
H2       0.52228    0.36730    0.81505   1.00
C6       0.43606    0.36605    0.80173   1.00
C6       0.55942    0.33298    0.85359   1.00
H2       0.42292    0.35558    0.77461   1.00
H2       0.57383    0.30453    0.85287   1.00
C6       0.40459    0.39060    0.82395   1.00
C6       0.58911    0.36326    0.87058   1.00
H2       0.45949    0.38568    0.79267   1.00
H2       0.53546    0.32973    0.87437   1.00
C6       0.36735    0.36630    0.83245   1.00
C6       0.62708    0.36506    0.84599   1.00
C6       0.42074    0.40721    0.86277   1.00
C6       0.57107    0.40463    0.87321   1.00
C6       0.39245    0.42555    0.79778   1.00
C6       0.60054    0.35031    0.91247   1.00
H2       0.35558    0.35363    0.80568   1.00
H2       0.64020    0.33617    0.84304   1.00
H2       0.37330    0.34255    0.85270   1.00
H2       0.62154    0.37630    0.81679   1.00
H2       0.34459    0.38436    0.84549   1.00
H2       0.64863    0.38419    0.85954   1.00
H2       0.39955    0.42652    0.87664   1.00
H2       0.59098    0.42489    0.88764   1.00
H2       0.42725    0.38383    0.88333   1.00
H2       0.56494    0.41626    0.84425   1.00
H2       0.44745    0.42377    0.85771   1.00
H2       0.54385    0.40404    0.88970   1.00
H2       0.38042    0.41539    0.77008   1.00
H2       0.61383    0.32135    0.91221   1.00
H2       0.37025    0.44347    0.81197   1.00
H2       0.62149    0.37046    0.92551   1.00
H2       0.41739    0.44429    0.79140   1.00
H2       0.57502    0.34924    0.93149   1.00
C4       0.24654    0.01975    0.74669   1.00
C4       0.24501    -0.02191   0.74695   1.00
C3       0.26942    0.04103    0.71925   1.00
C3       0.26289    -0.04504   0.71738   1.00
C3       0.22458    0.04146    0.77476   1.00
C3       0.22491    -0.04170   0.77770   1.00
C2       0.24815    0.10405    0.74490   1.00
C2       0.24358    -0.10622   0.74847   1.00
C3       0.27010    0.08189    0.71820   1.00
C3       0.26241    -0.08591   0.71816   1.00
C3       0.22589    0.08304    0.77256   1.00
C3       0.22528    -0.08336   0.77754   1.00
H1       0.28675    0.02763    0.69924   1.00
H1       0.27661    -0.03306   0.69396   1.00
C5       0.20229    0.02165    0.80413   1.00
C5       0.20496    -0.01998   0.80739   1.00
H1       0.28707    0.09549    0.69759   1.00
H1       0.27599    -0.10091   0.69605   1.00
H1       0.21046    0.09948    0.79185   1.00
H1       0.21154    -0.09848   0.79905   1.00
C6       0.17596    0.04485    0.83097   1.00
C6       0.18739    -0.04119   0.84195   1.00
H2       0.16022    0.06655    0.81387   1.00
H2       0.20800    -0.06310   0.85225   1.00
H2       0.15220    0.02714    0.84227   1.00
H2       0.18495    -0.02228   0.86730   1.00
C6       0.19827    0.06394    0.86605   1.00
C6       0.14641    -0.05942   0.83298   1.00
H2       0.22539    0.07708    0.85558   1.00
H2       0.14713    -0.07383   0.80453   1.00
C6       0.17605    0.09541    0.89060   1.00
C6       0.12942    -0.08911   0.86326   1.00
H2       0.20733    0.04051    0.88568   1.00
H2       0.12563    -0.03546   0.82973   1.00
C6       0.16755    0.13265    0.86630   1.00
C6       0.15401    -0.12708   0.86506   1.00
C6       0.13723    0.07926    0.90721   1.00
C6       0.12679    -0.07107   0.90463   1.00
C6       0.20222    0.10755    0.92555   1.00
C6       0.08753    -0.10054   0.85031   1.00
H2       0.19432    0.14442    0.85363   1.00
H2       0.15696    -0.14020   0.83617   1.00
H2       0.14730    0.12670    0.84255   1.00
H2       0.18321    -0.12154   0.87630   1.00
H2       0.15451    0.15541    0.88436   1.00
H2       0.14046    -0.14863   0.88419   1.00
H2       0.12336    0.10045    0.92652   1.00
H2       0.11236    -0.09098   0.92489   1.00
H2       0.11667    0.07275    0.88383   1.00
H2       0.15575    -0.06494   0.91626   1.00
H2       0.14229    0.05255    0.92377   1.00
H2       0.11030    -0.04385   0.90404   1.00
H2       0.22992    0.11958    0.91539   1.00
H2       0.08779    -0.11383   0.82135   1.00
H2       0.18803    0.12975    0.94347   1.00
H2       0.07449    -0.12149   0.87046   1.00
H2       0.20860    0.08261    0.94429   1.00
H2       0.06851    -0.07502   0.84924   1.00
C4       0.24669    0.24654    0.51975   1.00
C4       0.24695    0.24501    0.47809   1.00
C3       0.21925    0.26942    0.54103   1.00
C3       0.21738    0.26289    0.45496   1.00
C3       0.27476    0.22458    0.54146   1.00
C3       0.27770    0.22491    0.45830   1.00
C2       0.24490    0.24815    0.60405   1.00
C2       0.24847    0.24358    0.39378   1.00
C3       0.21820    0.27010    0.58189   1.00
C3       0.21816    0.26241    0.41409   1.00
C3       0.27256    0.22589    0.58304   1.00
C3       0.27754    0.22528    0.41664   1.00
H1       0.19924    0.28675    0.52763   1.00
H1       0.19396    0.27661    0.46694   1.00
C5       0.30413    0.20229    0.52165   1.00
C5       0.30739    0.20496    0.48002   1.00
H1       0.19759    0.28707    0.59549   1.00
H1       0.19605    0.27599    0.39909   1.00
H1       0.29185    0.21046    0.59948   1.00
H1       0.29905    0.21154    0.40152   1.00
C6       0.33097    0.17596    0.54485   1.00
C6       0.34195    0.18739    0.45881   1.00
H2       0.31387    0.16022    0.56655   1.00
H2       0.35225    0.20800    0.43690   1.00
H2       0.34227    0.15220    0.52714   1.00
H2       0.36730    0.18495    0.47772   1.00
C6       0.36605    0.19827    0.56394   1.00
C6       0.33298    0.14641    0.44058   1.00
H2       0.35558    0.22539    0.57708   1.00
H2       0.30453    0.14713    0.42617   1.00
C6       0.39060    0.17605    0.59541   1.00
C6       0.36326    0.12942    0.41089   1.00
H2       0.38568    0.20733    0.54051   1.00
H2       0.32973    0.12563    0.46454   1.00
C6       0.36630    0.16755    0.63265   1.00
C6       0.36506    0.15401    0.37292   1.00
C6       0.40721    0.13723    0.57926   1.00
C6       0.40463    0.12679    0.42893   1.00
C6       0.42555    0.20222    0.60755   1.00
C6       0.35031    0.08753    0.39946   1.00
H2       0.35363    0.19432    0.64442   1.00
H2       0.33617    0.15696    0.35980   1.00
H2       0.34255    0.14730    0.62670   1.00
H2       0.37630    0.18321    0.37846   1.00
H2       0.38436    0.15451    0.65541   1.00
H2       0.38419    0.14046    0.35137   1.00
H2       0.42652    0.12336    0.60045   1.00
H2       0.42489    0.11236    0.40902   1.00
H2       0.38383    0.11667    0.57275   1.00
H2       0.41626    0.15575    0.43506   1.00
H2       0.42377    0.14229    0.55255   1.00
H2       0.40404    0.11030    0.45615   1.00
H2       0.41539    0.22992    0.61958   1.00
H2       0.32135    0.08779    0.38617   1.00
H2       0.44347    0.18803    0.62975   1.00
H2       0.37046    0.07449    0.37851   1.00
H2       0.44429    0.20860    0.58261   1.00
H2       0.34924    0.06851    0.42498   1.00
C4       0.24669    0.75346    0.48025   1.00
C4       0.24695    0.75499    0.52191   1.00
C3       0.21925    0.73058    0.45897   1.00
C3       0.21738    0.73711    0.54504   1.00
C3       0.27476    0.77542    0.45854   1.00
C3       0.27770    0.77509    0.54170   1.00
C2       0.24490    0.75185    0.39595   1.00
C2       0.24847    0.75642    0.60622   1.00
C3       0.21820    0.72990    0.41811   1.00
C3       0.21816    0.73759    0.58591   1.00
C3       0.27256    0.77411    0.41696   1.00
C3       0.27754    0.77472    0.58336   1.00
H1       0.19924    0.71325    0.47237   1.00
H1       0.19396    0.72339    0.53306   1.00
C5       0.30413    0.79771    0.47835   1.00
C5       0.30739    0.79504    0.51998   1.00
H1       0.19759    0.71293    0.40451   1.00
H1       0.19605    0.72401    0.60091   1.00
H1       0.29185    0.78954    0.40052   1.00
H1       0.29905    0.78846    0.59848   1.00
C6       0.33097    0.82404    0.45515   1.00
C6       0.34195    0.81261    0.54119   1.00
H2       0.31387    0.83978    0.43345   1.00
H2       0.35225    0.79200    0.56310   1.00
H2       0.34227    0.84780    0.47286   1.00
H2       0.36730    0.81505    0.52228   1.00
C6       0.36605    0.80173    0.43606   1.00
C6       0.33298    0.85359    0.55942   1.00
H2       0.35558    0.77461    0.42292   1.00
H2       0.30453    0.85287    0.57383   1.00
C6       0.39060    0.82395    0.40459   1.00
C6       0.36326    0.87058    0.58911   1.00
H2       0.38568    0.79267    0.45949   1.00
H2       0.32973    0.87437    0.53546   1.00
C6       0.36630    0.83245    0.36735   1.00
C6       0.36506    0.84599    0.62708   1.00
C6       0.40721    0.86277    0.42074   1.00
C6       0.40463    0.87321    0.57107   1.00
C6       0.42555    0.79778    0.39245   1.00
C6       0.35031    0.91247    0.60054   1.00
H2       0.35363    0.80568    0.35558   1.00
H2       0.33617    0.84304    0.64020   1.00
H2       0.34255    0.85270    0.37330   1.00
H2       0.37630    0.81679    0.62154   1.00
H2       0.38436    0.84549    0.34459   1.00
H2       0.38419    0.85954    0.64863   1.00
H2       0.42652    0.87664    0.39955   1.00
H2       0.42489    0.88764    0.59098   1.00
H2       0.38383    0.88333    0.42725   1.00
H2       0.41626    0.84425    0.56494   1.00
H2       0.42377    0.85771    0.44745   1.00
H2       0.40404    0.88970    0.54385   1.00
H2       0.41539    0.77008    0.38042   1.00
H2       0.32135    0.91221    0.61383   1.00
H2       0.44347    0.81197    0.37025   1.00
H2       0.37046    0.92551    0.62149   1.00
H2       0.44429    0.79140    0.41739   1.00
H2       0.34924    0.93149    0.57502   1.00
C4       0.25346    0.98025    0.24669   1.00
C4       0.25499    1.02191    0.24695   1.00
C3       0.23058    0.95897    0.21925   1.00
C3       0.23711    1.04504    0.21738   1.00
C3       0.27542    0.95854    0.27476   1.00
C3       0.27509    1.04170    0.27770   1.00
C2       0.25185    0.89595    0.24490   1.00
C2       0.25642    1.10622    0.24847   1.00
C3       0.22990    0.91811    0.21820   1.00
C3       0.23759    1.08591    0.21816   1.00
C3       0.27411    0.91696    0.27256   1.00
C3       0.27472    1.08336    0.27754   1.00
H1       0.21325    0.97237    0.19924   1.00
H1       0.22339    1.03306    0.19396   1.00
C5       0.29771    0.97835    0.30413   1.00
C5       0.29504    1.01998    0.30739   1.00
H1       0.21293    0.90451    0.19759   1.00
H1       0.22401    1.10091    0.19605   1.00
H1       0.28954    0.90052    0.29185   1.00
H1       0.28846    1.09848    0.29905   1.00
C6       0.32404    0.95515    0.33097   1.00
C6       0.31261    1.04119    0.34195   1.00
H2       0.33978    0.93345    0.31387   1.00
H2       0.29200    1.06310    0.35225   1.00
H2       0.34780    0.97286    0.34227   1.00
H2       0.31505    1.02228    0.36730   1.00
C6       0.30173    0.93606    0.36605   1.00
C6       0.35359    1.05942    0.33298   1.00
H2       0.27461    0.92292    0.35558   1.00
H2       0.35287    1.07383    0.30453   1.00
C6       0.32395    0.90459    0.39060   1.00
C6       0.37058    1.08911    0.36326   1.00
H2       0.29267    0.95949    0.38568   1.00
H2       0.37437    1.03546    0.32973   1.00
C6       0.33245    0.86735    0.36630   1.00
C6       0.34599    1.12708    0.36506   1.00
C6       0.36277    0.92074    0.40721   1.00
C6       0.37321    1.07107    0.40463   1.00
C6       0.29778    0.89245    0.42555   1.00
C6       0.41247    1.10054    0.35031   1.00
H2       0.30568    0.85558    0.35363   1.00
H2       0.34304    1.14020    0.33617   1.00
H2       0.35270    0.87330    0.34255   1.00
H2       0.31679    1.12154    0.37630   1.00
H2       0.34549    0.84459    0.38436   1.00
H2       0.35954    1.14863    0.38419   1.00
H2       0.37664    0.89955    0.42652   1.00
H2       0.38764    1.09098    0.42489   1.00
H2       0.38333    0.92725    0.38383   1.00
H2       0.34425    1.06494    0.41626   1.00
H2       0.35771    0.94745    0.42377   1.00
H2       0.38970    1.04385    0.40404   1.00
H2       0.27008    0.88042    0.41539   1.00
H2       0.41221    1.11383    0.32135   1.00
H2       0.31197    0.87025    0.44347   1.00
H2       0.42551    1.12149    0.37046   1.00
H2       0.29140    0.91739    0.44429   1.00
H2       0.43149    1.07502    0.34924   1.00
C4       0.01975    0.74669    0.24654   1.00
C4       -0.02191   0.74695    0.24501   1.00
C3       0.04103    0.71925    0.26942   1.00
C3       -0.04504   0.71738    0.26289   1.00
C3       0.04146    0.77476    0.22458   1.00
C3       -0.04170   0.77770    0.22491   1.00
C2       0.10405    0.74490    0.24815   1.00
C2       -0.10622   0.74847    0.24358   1.00
C3       0.08189    0.71820    0.27010   1.00
C3       -0.08591   0.71816    0.26241   1.00
C3       0.08304    0.77256    0.22589   1.00
C3       -0.08336   0.77754    0.22528   1.00
H1       0.02763    0.69924    0.28675   1.00
H1       -0.03306   0.69396    0.27661   1.00
C5       0.02165    0.80413    0.20229   1.00
C5       -0.01998   0.80739    0.20496   1.00
H1       0.09549    0.69759    0.28707   1.00
H1       -0.10091   0.69605    0.27599   1.00
H1       0.09948    0.79185    0.21046   1.00
H1       -0.09848   0.79905    0.21154   1.00
C6       0.04485    0.83097    0.17596   1.00
C6       -0.04119   0.84195    0.18739   1.00
H2       0.06655    0.81387    0.16022   1.00
H2       -0.06310   0.85225    0.20800   1.00
H2       0.02714    0.84227    0.15220   1.00
H2       -0.02228   0.86730    0.18495   1.00
C6       0.06394    0.86605    0.19827   1.00
C6       -0.05942   0.83298    0.14641   1.00
H2       0.07708    0.85558    0.22539   1.00
H2       -0.07383   0.80453    0.14713   1.00
C6       0.09541    0.89060    0.17605   1.00
C6       -0.08911   0.86326    0.12942   1.00
H2       0.04051    0.88568    0.20733   1.00
H2       -0.03546   0.82973    0.12563   1.00
C6       0.13265    0.86630    0.16755   1.00
C6       -0.12708   0.86506    0.15401   1.00
C6       0.07926    0.90721    0.13723   1.00
C6       -0.07107   0.90463    0.12679   1.00
C6       0.10755    0.92555    0.20222   1.00
C6       -0.10054   0.85031    0.08753   1.00
H2       0.14442    0.85363    0.19432   1.00
H2       -0.14020   0.83617    0.15696   1.00
H2       0.12670    0.84255    0.14730   1.00
H2       -0.12154   0.87630    0.18321   1.00
H2       0.15541    0.88436    0.15451   1.00
H2       -0.14863   0.88419    0.14046   1.00
H2       0.10045    0.92652    0.12336   1.00
H2       -0.09098   0.92489    0.11236   1.00
H2       0.07275    0.88383    0.11667   1.00
H2       -0.06494   0.91626    0.15575   1.00
H2       0.05255    0.92377    0.14229   1.00
H2       -0.04385   0.90404    0.11030   1.00
H2       0.11958    0.91539    0.22992   1.00
H2       -0.11383   0.82135    0.08779   1.00
H2       0.12975    0.94347    0.18803   1.00
H2       -0.12149   0.87046    0.07449   1.00
H2       0.08261    0.94429    0.20860   1.00
H2       -0.07502   0.84924    0.06851   1.00
C4       0.48025    0.74669    0.25346   1.00
C4       0.52191    0.74695    0.25499   1.00
C3       0.45897    0.71925    0.23058   1.00
C3       0.54504    0.71738    0.23711   1.00
C3       0.45854    0.77476    0.27542   1.00
C3       0.54170    0.77770    0.27509   1.00
C2       0.39595    0.74490    0.25185   1.00
C2       0.60622    0.74847    0.25642   1.00
C3       0.41811    0.71820    0.22990   1.00
C3       0.58591    0.71816    0.23759   1.00
C3       0.41696    0.77256    0.27411   1.00
C3       0.58336    0.77754    0.27472   1.00
H1       0.47237    0.69924    0.21325   1.00
H1       0.53306    0.69396    0.22339   1.00
C5       0.47835    0.80413    0.29771   1.00
C5       0.51998    0.80739    0.29504   1.00
H1       0.40451    0.69759    0.21293   1.00
H1       0.60091    0.69605    0.22401   1.00
H1       0.40052    0.79185    0.28954   1.00
H1       0.59848    0.79905    0.28846   1.00
C6       0.45515    0.83097    0.32404   1.00
C6       0.54119    0.84195    0.31261   1.00
H2       0.43345    0.81387    0.33978   1.00
H2       0.56310    0.85225    0.29200   1.00
H2       0.47286    0.84227    0.34780   1.00
H2       0.52228    0.86730    0.31505   1.00
C6       0.43606    0.86605    0.30173   1.00
C6       0.55942    0.83298    0.35359   1.00
H2       0.42292    0.85558    0.27461   1.00
H2       0.57383    0.80453    0.35287   1.00
C6       0.40459    0.89060    0.32395   1.00
C6       0.58911    0.86326    0.37058   1.00
H2       0.45949    0.88568    0.29267   1.00
H2       0.53546    0.82973    0.37437   1.00
C6       0.36735    0.86630    0.33245   1.00
C6       0.62708    0.86506    0.34599   1.00
C6       0.42074    0.90721    0.36277   1.00
C6       0.57107    0.90463    0.37321   1.00
C6       0.39245    0.92555    0.29778   1.00
C6       0.60054    0.85031    0.41247   1.00
H2       0.35558    0.85363    0.30568   1.00
H2       0.64020    0.83617    0.34304   1.00
H2       0.37330    0.84255    0.35270   1.00
H2       0.62154    0.87630    0.31679   1.00
H2       0.34459    0.88436    0.34549   1.00
H2       0.64863    0.88419    0.35954   1.00
H2       0.39955    0.92652    0.37664   1.00
H2       0.59098    0.92489    0.38764   1.00
H2       0.42725    0.88383    0.38333   1.00
H2       0.56494    0.91626    0.34425   1.00
H2       0.44745    0.92377    0.35771   1.00
H2       0.54385    0.90404    0.38970   1.00
H2       0.38042    0.91539    0.27008   1.00
H2       0.61383    0.82135    0.41221   1.00
H2       0.37025    0.94347    0.31197   1.00
H2       0.62149    0.87046    0.42551   1.00
H2       0.41739    0.94429    0.29140   1.00
H2       0.57502    0.84924    0.43149   1.00
C4       0.24654    0.51975    0.24669   1.00
C4       0.24501    0.47809    0.24695   1.00
C3       0.26942    0.54103    0.21925   1.00
C3       0.26289    0.45496    0.21738   1.00
C3       0.22458    0.54146    0.27476   1.00
C3       0.22491    0.45830    0.27770   1.00
C2       0.24815    0.60405    0.24490   1.00
C2       0.24358    0.39378    0.24847   1.00
C3       0.27010    0.58189    0.21820   1.00
C3       0.26241    0.41409    0.21816   1.00
C3       0.22589    0.58304    0.27256   1.00
C3       0.22528    0.41664    0.27754   1.00
H1       0.28675    0.52763    0.19924   1.00
H1       0.27661    0.46694    0.19396   1.00
C5       0.20229    0.52165    0.30413   1.00
C5       0.20496    0.48002    0.30739   1.00
H1       0.28707    0.59549    0.19759   1.00
H1       0.27599    0.39909    0.19605   1.00
H1       0.21046    0.59948    0.29185   1.00
H1       0.21154    0.40152    0.29905   1.00
C6       0.17596    0.54485    0.33097   1.00
C6       0.18739    0.45881    0.34195   1.00
H2       0.16022    0.56655    0.31387   1.00
H2       0.20800    0.43690    0.35225   1.00
H2       0.15220    0.52714    0.34227   1.00
H2       0.18495    0.47772    0.36730   1.00
C6       0.19827    0.56394    0.36605   1.00
C6       0.14641    0.44058    0.33298   1.00
H2       0.22539    0.57708    0.35558   1.00
H2       0.14713    0.42617    0.30453   1.00
C6       0.17605    0.59541    0.39060   1.00
C6       0.12942    0.41089    0.36326   1.00
H2       0.20733    0.54051    0.38568   1.00
H2       0.12563    0.46454    0.32973   1.00
C6       0.16755    0.63265    0.36630   1.00
C6       0.15401    0.37292    0.36506   1.00
C6       0.13723    0.57926    0.40721   1.00
C6       0.12679    0.42893    0.40463   1.00
C6       0.20222    0.60755    0.42555   1.00
C6       0.08753    0.39946    0.35031   1.00
H2       0.19432    0.64442    0.35363   1.00
H2       0.15696    0.35980    0.33617   1.00
H2       0.14730    0.62670    0.34255   1.00
H2       0.18321    0.37846    0.37630   1.00
H2       0.15451    0.65541    0.38436   1.00
H2       0.14046    0.35137    0.38419   1.00
H2       0.12336    0.60045    0.42652   1.00
H2       0.11236    0.40902    0.42489   1.00
H2       0.11667    0.57275    0.38383   1.00
H2       0.15575    0.43506    0.41626   1.00
H2       0.14229    0.55255    0.42377   1.00
H2       0.11030    0.45615    0.40404   1.00
H2       0.22992    0.61958    0.41539   1.00
H2       0.08779    0.38617    0.32135   1.00
H2       0.18803    0.62975    0.44347   1.00
H2       0.07449    0.37851    0.37046   1.00
H2       0.20860    0.58261    0.44429   1.00
H2       0.06851    0.42498    0.34924   1.00
C4       0.24669    0.74654    0.01975   1.00
C4       0.24695    0.74501    -0.02191   1.00
C3       0.21925    0.76942    0.04103   1.00
C3       0.21738    0.76289    -0.04504   1.00
C3       0.27476    0.72458    0.04146   1.00
C3       0.27770    0.72491    -0.04170   1.00
C2       0.24490    0.74815    0.10405   1.00
C2       0.24847    0.74358    -0.10622   1.00
C3       0.21820    0.77010    0.08189   1.00
C3       0.21816    0.76241    -0.08591   1.00
C3       0.27256    0.72589    0.08304   1.00
C3       0.27754    0.72528    -0.08336   1.00
H1       0.19924    0.78675    0.02763   1.00
H1       0.19396    0.77661    -0.03306   1.00
C5       0.30413    0.70229    0.02165   1.00
C5       0.30739    0.70496    -0.01998   1.00
H1       0.19759    0.78707    0.09549   1.00
H1       0.19605    0.77599    -0.10091   1.00
H1       0.29185    0.71046    0.09948   1.00
H1       0.29905    0.71154    -0.09848   1.00
C6       0.33097    0.67596    0.04485   1.00
C6       0.34195    0.68739    -0.04119   1.00
H2       0.31387    0.66022    0.06655   1.00
H2       0.35225    0.70800    -0.06310   1.00
H2       0.34227    0.65220    0.02714   1.00
H2       0.36730    0.68495    -0.02228   1.00
C6       0.36605    0.69827    0.06394   1.00
C6       0.33298    0.64641    -0.05942   1.00
H2       0.35558    0.72539    0.07708   1.00
H2       0.30453    0.64713    -0.07383   1.00
C6       0.39060    0.67605    0.09541   1.00
C6       0.36326    0.62942    -0.08911   1.00
H2       0.38568    0.70733    0.04051   1.00
H2       0.32973    0.62563    -0.03546   1.00
C6       0.36630    0.66755    0.13265   1.00
C6       0.36506    0.65401    -0.12708   1.00
C6       0.40721    0.63723    0.07926   1.00
C6       0.40463    0.62679    -0.07107   1.00
C6       0.42555    0.70222    0.10755   1.00
C6       0.35031    0.58753    -0.10054   1.00
H2       0.35363    0.69432    0.14442   1.00
H2       0.33617    0.65696    -0.14020   1.00
H2       0.34255    0.64730    0.12670   1.00
H2       0.37630    0.68321    -0.12154   1.00
H2       0.38436    0.65451    0.15541   1.00
H2       0.38419    0.64046    -0.14863   1.00
H2       0.42652    0.62336    0.10045   1.00
H2       0.42489    0.61236    -0.09098   1.00
H2       0.38383    0.61667    0.07275   1.00
H2       0.41626    0.65575    -0.06494   1.00
H2       0.42377    0.64229    0.05255   1.00
H2       0.40404    0.61030    -0.04385   1.00
H2       0.41539    0.72992    0.11958   1.00
H2       0.32135    0.58779    -0.11383   1.00
H2       0.44347    0.68803    0.12975   1.00
H2       0.37046    0.57449    -0.12149   1.00
H2       0.44429    0.70860    0.08261   1.00
H2       0.34924    0.56851    -0.07502   1.00
C4       0.74669    0.25346    0.48025   1.00
C4       0.74695    0.25499    0.52191   1.00
C3       0.71925    0.23058    0.45897   1.00
C3       0.71738    0.23711    0.54504   1.00
C3       0.77476    0.27542    0.45854   1.00
C3       0.77770    0.27509    0.54170   1.00
C2       0.74490    0.25185    0.39595   1.00
C2       0.74847    0.25642    0.60622   1.00
C3       0.71820    0.22990    0.41811   1.00
C3       0.71816    0.23759    0.58591   1.00
C3       0.77256    0.27411    0.41696   1.00
C3       0.77754    0.27472    0.58336   1.00
H1       0.69924    0.21325    0.47237   1.00
H1       0.69396    0.22339    0.53306   1.00
C5       0.80413    0.29771    0.47835   1.00
C5       0.80739    0.29504    0.51998   1.00
H1       0.69759    0.21293    0.40451   1.00
H1       0.69605    0.22401    0.60091   1.00
H1       0.79185    0.28954    0.40052   1.00
H1       0.79905    0.28846    0.59848   1.00
C6       0.83097    0.32404    0.45515   1.00
C6       0.84195    0.31261    0.54119   1.00
H2       0.81387    0.33978    0.43345   1.00
H2       0.85225    0.29200    0.56310   1.00
H2       0.84227    0.34780    0.47286   1.00
H2       0.86730    0.31505    0.52228   1.00
C6       0.86605    0.30173    0.43606   1.00
C6       0.83298    0.35359    0.55942   1.00
H2       0.85558    0.27461    0.42292   1.00
H2       0.80453    0.35287    0.57383   1.00
C6       0.89060    0.32395    0.40459   1.00
C6       0.86326    0.37058    0.58911   1.00
H2       0.88568    0.29267    0.45949   1.00
H2       0.82973    0.37437    0.53546   1.00
C6       0.86630    0.33245    0.36735   1.00
C6       0.86506    0.34599    0.62708   1.00
C6       0.90721    0.36277    0.42074   1.00
C6       0.90463    0.37321    0.57107   1.00
C6       0.92555    0.29778    0.39245   1.00
C6       0.85031    0.41247    0.60054   1.00
H2       0.85363    0.30568    0.35558   1.00
H2       0.83617    0.34304    0.64020   1.00
H2       0.84255    0.35270    0.37330   1.00
H2       0.87630    0.31679    0.62154   1.00
H2       0.88436    0.34549    0.34459   1.00
H2       0.88419    0.35954    0.64863   1.00
H2       0.92652    0.37664    0.39955   1.00
H2       0.92489    0.38764    0.59098   1.00
H2       0.88383    0.38333    0.42725   1.00
H2       0.91626    0.34425    0.56494   1.00
H2       0.92377    0.35771    0.44745   1.00
H2       0.90404    0.38970    0.54385   1.00
H2       0.91539    0.27008    0.38042   1.00
H2       0.82135    0.41221    0.61383   1.00
H2       0.94347    0.31197    0.37025   1.00
H2       0.87046    0.42551    0.62149   1.00
H2       0.94429    0.29140    0.41739   1.00
H2       0.84924    0.43149    0.57502   1.00
C4       0.75346    0.48025    0.24669   1.00
C4       0.75499    0.52191    0.24695   1.00
C3       0.73058    0.45897    0.21925   1.00
C3       0.73711    0.54504    0.21738   1.00
C3       0.77542    0.45854    0.27476   1.00
C3       0.77509    0.54170    0.27770   1.00
C2       0.75185    0.39595    0.24490   1.00
C2       0.75642    0.60622    0.24847   1.00
C3       0.72990    0.41811    0.21820   1.00
C3       0.73759    0.58591    0.21816   1.00
C3       0.77411    0.41696    0.27256   1.00
C3       0.77472    0.58336    0.27754   1.00
H1       0.71325    0.47237    0.19924   1.00
H1       0.72339    0.53306    0.19396   1.00
C5       0.79771    0.47835    0.30413   1.00
C5       0.79504    0.51998    0.30739   1.00
H1       0.71293    0.40451    0.19759   1.00
H1       0.72401    0.60091    0.19605   1.00
H1       0.78954    0.40052    0.29185   1.00
H1       0.78846    0.59848    0.29905   1.00
C6       0.82404    0.45515    0.33097   1.00
C6       0.81261    0.54119    0.34195   1.00
H2       0.83978    0.43345    0.31387   1.00
H2       0.79200    0.56310    0.35225   1.00
H2       0.84780    0.47286    0.34227   1.00
H2       0.81505    0.52228    0.36730   1.00
C6       0.80173    0.43606    0.36605   1.00
C6       0.85359    0.55942    0.33298   1.00
H2       0.77461    0.42292    0.35558   1.00
H2       0.85287    0.57383    0.30453   1.00
C6       0.82395    0.40459    0.39060   1.00
C6       0.87058    0.58911    0.36326   1.00
H2       0.79267    0.45949    0.38568   1.00
H2       0.87437    0.53546    0.32973   1.00
C6       0.83245    0.36735    0.36630   1.00
C6       0.84599    0.62708    0.36506   1.00
C6       0.86277    0.42074    0.40721   1.00
C6       0.87321    0.57107    0.40463   1.00
C6       0.79778    0.39245    0.42555   1.00
C6       0.91247    0.60054    0.35031   1.00
H2       0.80568    0.35558    0.35363   1.00
H2       0.84304    0.64020    0.33617   1.00
H2       0.85270    0.37330    0.34255   1.00
H2       0.81679    0.62154    0.37630   1.00
H2       0.84549    0.34459    0.38436   1.00
H2       0.85954    0.64863    0.38419   1.00
H2       0.87664    0.39955    0.42652   1.00
H2       0.88764    0.59098    0.42489   1.00
H2       0.88333    0.42725    0.38383   1.00
H2       0.84425    0.56494    0.41626   1.00
H2       0.85771    0.44745    0.42377   1.00
H2       0.88970    0.54385    0.40404   1.00
H2       0.77008    0.38042    0.41539   1.00
H2       0.91221    0.61383    0.32135   1.00
H2       0.81197    0.37025    0.44347   1.00
H2       0.92551    0.62149    0.37046   1.00
H2       0.79140    0.41739    0.44429   1.00
H2       0.93149    0.57502    0.34924   1.00
C4       0.51975    0.24669    0.24654   1.00
C4       0.47809    0.24695    0.24501   1.00
C3       0.54103    0.21925    0.26942   1.00
C3       0.45496    0.21738    0.26289   1.00
C3       0.54146    0.27476    0.22458   1.00
C3       0.45830    0.27770    0.22491   1.00
C2       0.60405    0.24490    0.24815   1.00
C2       0.39378    0.24847    0.24358   1.00
C3       0.58189    0.21820    0.27010   1.00
C3       0.41409    0.21816    0.26241   1.00
C3       0.58304    0.27256    0.22589   1.00
C3       0.41664    0.27754    0.22528   1.00
H1       0.52763    0.19924    0.28675   1.00
H1       0.46694    0.19396    0.27661   1.00
C5       0.52165    0.30413    0.20229   1.00
C5       0.48002    0.30739    0.20496   1.00
H1       0.59549    0.19759    0.28707   1.00
H1       0.39909    0.19605    0.27599   1.00
H1       0.59948    0.29185    0.21046   1.00
H1       0.40152    0.29905    0.21154   1.00
C6       0.54485    0.33097    0.17596   1.00
C6       0.45881    0.34195    0.18739   1.00
H2       0.56655    0.31387    0.16022   1.00
H2       0.43690    0.35225    0.20800   1.00
H2       0.52714    0.34227    0.15220   1.00
H2       0.47772    0.36730    0.18495   1.00
C6       0.56394    0.36605    0.19827   1.00
C6       0.44058    0.33298    0.14641   1.00
H2       0.57708    0.35558    0.22539   1.00
H2       0.42617    0.30453    0.14713   1.00
C6       0.59541    0.39060    0.17605   1.00
C6       0.41089    0.36326    0.12942   1.00
H2       0.54051    0.38568    0.20733   1.00
H2       0.46454    0.32973    0.12563   1.00
C6       0.63265    0.36630    0.16755   1.00
C6       0.37292    0.36506    0.15401   1.00
C6       0.57926    0.40721    0.13723   1.00
C6       0.42893    0.40463    0.12679   1.00
C6       0.60755    0.42555    0.20222   1.00
C6       0.39946    0.35031    0.08753   1.00
H2       0.64442    0.35363    0.19432   1.00
H2       0.35980    0.33617    0.15696   1.00
H2       0.62670    0.34255    0.14730   1.00
H2       0.37846    0.37630    0.18321   1.00
H2       0.65541    0.38436    0.15451   1.00
H2       0.35137    0.38419    0.14046   1.00
H2       0.60045    0.42652    0.12336   1.00
H2       0.40902    0.42489    0.11236   1.00
H2       0.57275    0.38383    0.11667   1.00
H2       0.43506    0.41626    0.15575   1.00
H2       0.55255    0.42377    0.14229   1.00
H2       0.45615    0.40404    0.11030   1.00
H2       0.61958    0.41539    0.22992   1.00
H2       0.38617    0.32135    0.08779   1.00
H2       0.62975    0.44347    0.18803   1.00
H2       0.37851    0.37046    0.07449   1.00
H2       0.58261    0.44429    0.20860   1.00
H2       0.42498    0.34924    0.06851   1.00
C4       0.98025    0.24669    0.25346   1.00
C4       1.02191    0.24695    0.25499   1.00
C3       0.95897    0.21925    0.23058   1.00
C3       1.04504    0.21738    0.23711   1.00
C3       0.95854    0.27476    0.27542   1.00
C3       1.04170    0.27770    0.27509   1.00
C2       0.89595    0.24490    0.25185   1.00
C2       1.10622    0.24847    0.25642   1.00
C3       0.91811    0.21820    0.22990   1.00
C3       1.08591    0.21816    0.23759   1.00
C3       0.91696    0.27256    0.27411   1.00
C3       1.08336    0.27754    0.27472   1.00
H1       0.97237    0.19924    0.21325   1.00
H1       1.03306    0.19396    0.22339   1.00
C5       0.97835    0.30413    0.29771   1.00
C5       1.01998    0.30739    0.29504   1.00
H1       0.90451    0.19759    0.21293   1.00
H1       1.10091    0.19605    0.22401   1.00
H1       0.90052    0.29185    0.28954   1.00
H1       1.09848    0.29905    0.28846   1.00
C6       0.95515    0.33097    0.32404   1.00
C6       1.04119    0.34195    0.31261   1.00
H2       0.93345    0.31387    0.33978   1.00
H2       1.06310    0.35225    0.29200   1.00
H2       0.97286    0.34227    0.34780   1.00
H2       1.02228    0.36730    0.31505   1.00
C6       0.93606    0.36605    0.30173   1.00
C6       1.05942    0.33298    0.35359   1.00
H2       0.92292    0.35558    0.27461   1.00
H2       1.07383    0.30453    0.35287   1.00
C6       0.90459    0.39060    0.32395   1.00
C6       1.08911    0.36326    0.37058   1.00
H2       0.95949    0.38568    0.29267   1.00
H2       1.03546    0.32973    0.37437   1.00
C6       0.86735    0.36630    0.33245   1.00
C6       1.12708    0.36506    0.34599   1.00
C6       0.92074    0.40721    0.36277   1.00
C6       1.07107    0.40463    0.37321   1.00
C6       0.89245    0.42555    0.29778   1.00
C6       1.10054    0.35031    0.41247   1.00
H2       0.85558    0.35363    0.30568   1.00
H2       1.14020    0.33617    0.34304   1.00
H2       0.87330    0.34255    0.35270   1.00
H2       1.12154    0.37630    0.31679   1.00
H2       0.84459    0.38436    0.34549   1.00
H2       1.14863    0.38419    0.35954   1.00
H2       0.89955    0.42652    0.37664   1.00
H2       1.09098    0.42489    0.38764   1.00
H2       0.92725    0.38383    0.38333   1.00
H2       1.06494    0.41626    0.34425   1.00
H2       0.94745    0.42377    0.35771   1.00
H2       1.04385    0.40404    0.38970   1.00
H2       0.88042    0.41539    0.27008   1.00
H2       1.11383    0.32135    0.41221   1.00
H2       0.87025    0.44347    0.31197   1.00
H2       1.12149    0.37046    0.42551   1.00
H2       0.91739    0.44429    0.29140   1.00
H2       1.07502    0.34924    0.43149   1.00
C4       0.74654    0.01975    0.24669   1.00
C4       0.74501    -0.02191   0.24695   1.00
C3       0.76942    0.04103    0.21925   1.00
C3       0.76289    -0.04504   0.21738   1.00
C3       0.72458    0.04146    0.27476   1.00
C3       0.72491    -0.04170   0.27770   1.00
C2       0.74815    0.10405    0.24490   1.00
C2       0.74358    -0.10622   0.24847   1.00
C3       0.77010    0.08189    0.21820   1.00
C3       0.76241    -0.08591   0.21816   1.00
C3       0.72589    0.08304    0.27256   1.00
C3       0.72528    -0.08336   0.27754   1.00
H1       0.78675    0.02763    0.19924   1.00
H1       0.77661    -0.03306   0.19396   1.00
C5       0.70229    0.02165    0.30413   1.00
C5       0.70496    -0.01998   0.30739   1.00
H1       0.78707    0.09549    0.19759   1.00
H1       0.77599    -0.10091   0.19605   1.00
H1       0.71046    0.09948    0.29185   1.00
H1       0.71154    -0.09848   0.29905   1.00
C6       0.67596    0.04485    0.33097   1.00
C6       0.68739    -0.04119   0.34195   1.00
H2       0.66022    0.06655    0.31387   1.00
H2       0.70800    -0.06310   0.35225   1.00
H2       0.65220    0.02714    0.34227   1.00
H2       0.68495    -0.02228   0.36730   1.00
C6       0.69827    0.06394    0.36605   1.00
C6       0.64641    -0.05942   0.33298   1.00
H2       0.72539    0.07708    0.35558   1.00
H2       0.64713    -0.07383   0.30453   1.00
C6       0.67605    0.09541    0.39060   1.00
C6       0.62942    -0.08911   0.36326   1.00
H2       0.70733    0.04051    0.38568   1.00
H2       0.62563    -0.03546   0.32973   1.00
C6       0.66755    0.13265    0.36630   1.00
C6       0.65401    -0.12708   0.36506   1.00
C6       0.63723    0.07926    0.40721   1.00
C6       0.62679    -0.07107   0.40463   1.00
C6       0.70222    0.10755    0.42555   1.00
C6       0.58753    -0.10054   0.35031   1.00
H2       0.69432    0.14442    0.35363   1.00
H2       0.65696    -0.14020   0.33617   1.00
H2       0.64730    0.12670    0.34255   1.00
H2       0.68321    -0.12154   0.37630   1.00
H2       0.65451    0.15541    0.38436   1.00
H2       0.64046    -0.14863   0.38419   1.00
H2       0.62336    0.10045    0.42652   1.00
H2       0.61236    -0.09098   0.42489   1.00
H2       0.61667    0.07275    0.38383   1.00
H2       0.65575    -0.06494   0.41626   1.00
H2       0.64229    0.05255    0.42377   1.00
H2       0.61030    -0.04385   0.40404   1.00
H2       0.72992    0.11958    0.41539   1.00
H2       0.58779    -0.11383   0.32135   1.00
H2       0.68803    0.12975    0.44347   1.00
H2       0.57449    -0.12149   0.37046   1.00
H2       0.70860    0.08261    0.44429   1.00
H2       0.56851    -0.07502   0.34924   1.00
C4       0.74669    0.24654    0.01975   1.00
C4       0.74695    0.24501    -0.02191   1.00
C3       0.71925    0.26942    0.04103   1.00
C3       0.71738    0.26289    -0.04504   1.00
C3       0.77476    0.22458    0.04146   1.00
C3       0.77770    0.22491    -0.04170   1.00
C2       0.74490    0.24815    0.10405   1.00
C2       0.74847    0.24358    -0.10622   1.00
C3       0.71820    0.27010    0.08189   1.00
C3       0.71816    0.26241    -0.08591   1.00
C3       0.77256    0.22589    0.08304   1.00
C3       0.77754    0.22528    -0.08336   1.00
H1       0.69924    0.28675    0.02763   1.00
H1       0.69396    0.27661    -0.03306   1.00
C5       0.80413    0.20229    0.02165   1.00
C5       0.80739    0.20496    -0.01998   1.00
H1       0.69759    0.28707    0.09549   1.00
H1       0.69605    0.27599    -0.10091   1.00
H1       0.79185    0.21046    0.09948   1.00
H1       0.79905    0.21154    -0.09848   1.00
C6       0.83097    0.17596    0.04485   1.00
C6       0.84195    0.18739    -0.04119   1.00
H2       0.81387    0.16022    0.06655   1.00
H2       0.85225    0.20800    -0.06310   1.00
H2       0.84227    0.15220    0.02714   1.00
H2       0.86730    0.18495    -0.02228   1.00
C6       0.86605    0.19827    0.06394   1.00
C6       0.83298    0.14641    -0.05942   1.00
H2       0.85558    0.22539    0.07708   1.00
H2       0.80453    0.14713    -0.07383   1.00
C6       0.89060    0.17605    0.09541   1.00
C6       0.86326    0.12942    -0.08911   1.00
H2       0.88568    0.20733    0.04051   1.00
H2       0.82973    0.12563    -0.03546   1.00
C6       0.86630    0.16755    0.13265   1.00
C6       0.86506    0.15401    -0.12708   1.00
C6       0.90721    0.13723    0.07926   1.00
C6       0.90463    0.12679    -0.07107   1.00
C6       0.92555    0.20222    0.10755   1.00
C6       0.85031    0.08753    -0.10054   1.00
H2       0.85363    0.19432    0.14442   1.00
H2       0.83617    0.15696    -0.14020   1.00
H2       0.84255    0.14730    0.12670   1.00
H2       0.87630    0.18321    -0.12154   1.00
H2       0.88436    0.15451    0.15541   1.00
H2       0.88419    0.14046    -0.14863   1.00
H2       0.92652    0.12336    0.10045   1.00
H2       0.92489    0.11236    -0.09098   1.00
H2       0.88383    0.11667    0.07275   1.00
H2       0.91626    0.15575    -0.06494   1.00
H2       0.92377    0.14229    0.05255   1.00
H2       0.90404    0.11030    -0.04385   1.00
H2       0.91539    0.22992    0.11958   1.00
H2       0.82135    0.08779    -0.11383   1.00
H2       0.94347    0.18803    0.12975   1.00
H2       0.87046    0.07449    -0.12149   1.00
H2       0.94429    0.20860    0.08261   1.00
H2       0.84924    0.06851    -0.07502   1.00
C4       0.91169    0.91846    1.14525   1.00
C4       0.91195    0.91999    1.18691   1.00
C3       0.88425    0.89558    1.12397   1.00
C3       0.88238    0.90211    1.21004   1.00
C3       0.93976    0.94042    1.12354   1.00
C3       0.94270    0.94009    1.20670   1.00
C2       0.90990    0.91685    1.06095   1.00
C2       0.91347    0.92142    1.27122   1.00
C3       0.88320    0.89490    1.08311   1.00
C3       0.88316    0.90259    1.25091   1.00
C3       0.93756    0.93911    1.08196   1.00
C3       0.94254    0.93972    1.24836   1.00
H1       0.86424    0.87825    1.13737   1.00
H1       0.85896    0.88839    1.19806   1.00
C5       0.96913    0.96271    1.14335   1.00
C5       0.97239    0.96004    1.18498   1.00
H1       0.86259    0.87793    1.06951   1.00
H1       0.86105    0.88901    1.26591   1.00
H1       0.95685    0.95454    1.06552   1.00
H1       0.96405    0.95346    1.26348   1.00
C6       0.99597    0.98904    1.12015   1.00
C6       1.00695    0.97761    1.20619   1.00
H2       0.97887    1.00478    1.09845   1.00
H2       1.01725    0.95700    1.22810   1.00
H2       1.00727    1.01280    1.13786   1.00
H2       1.03230    0.98005    1.18728   1.00
C6       1.03105    0.96673    1.10106   1.00
C6       0.99798    1.01859    1.22442   1.00
H2       1.02058    0.93961    1.08792   1.00
H2       0.96953    1.01787    1.23883   1.00
C6       1.05560    0.98895    1.06959   1.00
C6       1.02826    1.03558    1.25411   1.00
H2       1.05068    0.95767    1.12449   1.00
H2       0.99473    1.03937    1.20046   1.00
C6       1.03130    0.99745    1.03235   1.00
C6       1.03006    1.01099    1.29208   1.00
C6       1.07221    1.02777    1.08574   1.00
C6       1.06963    1.03821    1.23607   1.00
C6       1.09055    0.96278    1.05745   1.00
C6       1.01531    1.07747    1.26554   1.00
H2       1.01863    0.97068    1.02058   1.00
H2       1.00117    1.00804    1.30520   1.00
H2       1.00755    1.01770    1.03830   1.00
H2       1.04130    0.98179    1.28654   1.00
H2       1.04936    1.01049    1.00959   1.00
H2       1.04919    1.02454    1.31363   1.00
H2       1.09152    1.04164    1.06455   1.00
H2       1.08989    1.05264    1.25598   1.00
H2       1.04883    1.04833    1.09225   1.00
H2       1.08126    1.00925    1.22994   1.00
H2       1.08877    1.02271    1.11245   1.00
H2       1.06904    1.05470    1.20885   1.00
H2       1.08039    0.93508    1.04542   1.00
H2       0.98635    1.07721    1.27883   1.00
H2       1.10847    0.97697    1.03525   1.00
H2       1.03546    1.09051    1.28649   1.00
H2       1.10929    0.95640    1.08239   1.00
H2       1.01424    1.09649    1.24002   1.00
C4       0.91846    1.14525    0.91169   1.00
C4       0.91999    1.18691    0.91195   1.00
C3       0.89558    1.12397    0.88425   1.00
C3       0.90211    1.21004    0.88238   1.00
C3       0.94042    1.12354    0.93976   1.00
C3       0.94009    1.20670    0.94270   1.00
C2       0.91685    1.06095    0.90990   1.00
C2       0.92142    1.27122    0.91347   1.00
C3       0.89490    1.08311    0.88320   1.00
C3       0.90259    1.25091    0.88316   1.00
C3       0.93911    1.08196    0.93756   1.00
C3       0.93972    1.24836    0.94254   1.00
H1       0.87825    1.13737    0.86424   1.00
H1       0.88839    1.19806    0.85896   1.00
C5       0.96271    1.14335    0.96913   1.00
C5       0.96004    1.18498    0.97239   1.00
H1       0.87793    1.06951    0.86259   1.00
H1       0.88901    1.26591    0.86105   1.00
H1       0.95454    1.06552    0.95685   1.00
H1       0.95346    1.26348    0.96405   1.00
C6       0.98904    1.12015    0.99597   1.00
C6       0.97761    1.20619    1.00695   1.00
H2       1.00478    1.09845    0.97887   1.00
H2       0.95700    1.22810    1.01725   1.00
H2       1.01280    1.13786    1.00727   1.00
H2       0.98005    1.18728    1.03230   1.00
C6       0.96673    1.10106    1.03105   1.00
C6       1.01859    1.22442    0.99798   1.00
H2       0.93961    1.08792    1.02058   1.00
H2       1.01787    1.23883    0.96953   1.00
C6       0.98895    1.06959    1.05560   1.00
C6       1.03558    1.25411    1.02826   1.00
H2       0.95767    1.12449    1.05068   1.00
H2       1.03937    1.20046    0.99473   1.00
C6       0.99745    1.03235    1.03130   1.00
C6       1.01099    1.29208    1.03006   1.00
C6       1.02777    1.08574    1.07221   1.00
C6       1.03821    1.23607    1.06963   1.00
C6       0.96278    1.05745    1.09055   1.00
C6       1.07747    1.26554    1.01531   1.00
H2       0.97068    1.02058    1.01863   1.00
H2       1.00804    1.30520    1.00117   1.00
H2       1.01770    1.03830    1.00755   1.00
H2       0.98179    1.28654    1.04130   1.00
H2       1.01049    1.00959    1.04936   1.00
H2       1.02454    1.31363    1.04919   1.00
H2       1.04164    1.06455    1.09152   1.00
H2       1.05264    1.25598    1.08989   1.00
H2       1.04833    1.09225    1.04883   1.00
H2       1.00925    1.22994    1.08126   1.00
H2       1.02271    1.11245    1.08877   1.00
H2       1.05470    1.20885    1.06904   1.00
H2       0.93508    1.04542    1.08039   1.00
H2       1.07721    1.27883    0.98635   1.00
H2       0.97697    1.03525    1.10847   1.00
H2       1.09051    1.28649    1.03546   1.00
H2       0.95640    1.08239    1.10929   1.00
H2       1.09649    1.24002    1.01424   1.00
C4       0.68475    0.91169    0.91154   1.00
C4       0.64309    0.91195    0.91001   1.00
C3       0.70603    0.88425    0.93442   1.00
C3       0.61996    0.88238    0.92789   1.00
C3       0.70646    0.93976    0.88958   1.00
C3       0.62330    0.94270    0.88991   1.00
C2       0.76905    0.90990    0.91315   1.00
C2       0.55878    0.91347    0.90858   1.00
C3       0.74689    0.88320    0.93510   1.00
C3       0.57909    0.88316    0.92741   1.00
C3       0.74804    0.93756    0.89089   1.00
C3       0.58164    0.94254    0.89028   1.00
H1       0.69263    0.86424    0.95175   1.00
H1       0.63194    0.85896    0.94161   1.00
C5       0.68665    0.96913    0.86729   1.00
C5       0.64502    0.97239    0.86996   1.00
H1       0.76049    0.86259    0.95207   1.00
H1       0.56409    0.86105    0.94099   1.00
H1       0.76448    0.95685    0.87546   1.00
H1       0.56652    0.96405    0.87654   1.00
C6       0.70985    0.99597    0.84096   1.00
C6       0.62381    1.00695    0.85239   1.00
H2       0.73155    0.97887    0.82522   1.00
H2       0.60190    1.01725    0.87300   1.00
H2       0.69214    1.00727    0.81720   1.00
H2       0.64272    1.03230    0.84995   1.00
C6       0.72894    1.03105    0.86327   1.00
C6       0.60558    0.99798    0.81141   1.00
H2       0.74208    1.02058    0.89039   1.00
H2       0.59117    0.96953    0.81213   1.00
C6       0.76041    1.05560    0.84105   1.00
C6       0.57589    1.02826    0.79442   1.00
H2       0.70551    1.05068    0.87233   1.00
H2       0.62954    0.99473    0.79063   1.00
C6       0.79765    1.03130    0.83255   1.00
C6       0.53792    1.03006    0.81901   1.00
C6       0.74426    1.07221    0.80223   1.00
C6       0.59393    1.06963    0.79179   1.00
C6       0.77255    1.09055    0.86722   1.00
C6       0.56446    1.01531    0.75253   1.00
H2       0.80942    1.01863    0.85932   1.00
H2       0.52480    1.00117    0.82196   1.00
H2       0.79170    1.00755    0.81230   1.00
H2       0.54346    1.04130    0.84821   1.00
H2       0.82041    1.04936    0.81951   1.00
H2       0.51637    1.04919    0.80546   1.00
H2       0.76545    1.09152    0.78836   1.00
H2       0.57402    1.08989    0.77736   1.00
H2       0.73775    1.04883    0.78167   1.00
H2       0.60006    1.08126    0.82075   1.00
H2       0.71755    1.08877    0.80729   1.00
H2       0.62115    1.06904    0.77530   1.00
H2       0.78458    1.08039    0.89492   1.00
H2       0.55117    0.98635    0.75279   1.00
H2       0.79475    1.10847    0.85303   1.00
H2       0.54351    1.03546    0.73949   1.00
H2       0.74761    1.10929    0.87360   1.00
H2       0.58998    1.01424    0.73351   1.00
C4       1.14525    0.91169    0.91846   1.00
C4       1.18691    0.91195    0.91999   1.00
C3       1.12397    0.88425    0.89558   1.00
C3       1.21004    0.88238    0.90211   1.00
C3       1.12354    0.93976    0.94042   1.00
C3       1.20670    0.94270    0.94009   1.00
C2       1.06095    0.90990    0.91685   1.00
C2       1.27122    0.91347    0.92142   1.00
C3       1.08311    0.88320    0.89490   1.00
C3       1.25091    0.88316    0.90259   1.00
C3       1.08196    0.93756    0.93911   1.00
C3       1.24836    0.94254    0.93972   1.00
H1       1.13737    0.86424    0.87825   1.00
H1       1.19806    0.85896    0.88839   1.00
C5       1.14335    0.96913    0.96271   1.00
C5       1.18498    0.97239    0.96004   1.00
H1       1.06951    0.86259    0.87793   1.00
H1       1.26591    0.86105    0.88901   1.00
H1       1.06552    0.95685    0.95454   1.00
H1       1.26348    0.96405    0.95346   1.00
C6       1.12015    0.99597    0.98904   1.00
C6       1.20619    1.00695    0.97761   1.00
H2       1.09845    0.97887    1.00478   1.00
H2       1.22810    1.01725    0.95700   1.00
H2       1.13786    1.00727    1.01280   1.00
H2       1.18728    1.03230    0.98005   1.00
C6       1.10106    1.03105    0.96673   1.00
C6       1.22442    0.99798    1.01859   1.00
H2       1.08792    1.02058    0.93961   1.00
H2       1.23883    0.96953    1.01787   1.00
C6       1.06959    1.05560    0.98895   1.00
C6       1.25411    1.02826    1.03558   1.00
H2       1.12449    1.05068    0.95767   1.00
H2       1.20046    0.99473    1.03937   1.00
C6       1.03235    1.03130    0.99745   1.00
C6       1.29208    1.03006    1.01099   1.00
C6       1.08574    1.07221    1.02777   1.00
C6       1.23607    1.06963    1.03821   1.00
C6       1.05745    1.09055    0.96278   1.00
C6       1.26554    1.01531    1.07747   1.00
H2       1.02058    1.01863    0.97068   1.00
H2       1.30520    1.00117    1.00804   1.00
H2       1.03830    1.00755    1.01770   1.00
H2       1.28654    1.04130    0.98179   1.00
H2       1.00959    1.04936    1.01049   1.00
H2       1.31363    1.04919    1.02454   1.00
H2       1.06455    1.09152    1.04164   1.00
H2       1.25598    1.08989    1.05264   1.00
H2       1.09225    1.04883    1.04833   1.00
H2       1.22994    1.08126    1.00925   1.00
H2       1.11245    1.08877    1.02271   1.00
H2       1.20885    1.06904    1.05470   1.00
H2       1.04542    1.08039    0.93508   1.00
H2       1.27883    0.98635    1.07721   1.00
H2       1.03525    1.10847    0.97697   1.00
H2       1.28649    1.03546    1.09051   1.00
H2       1.08239    1.10929    0.95640   1.00
H2       1.24002    1.01424    1.09649   1.00
C4       0.91154    0.68475    0.91169   1.00
C4       0.91001    0.64309    0.91195   1.00
C3       0.93442    0.70603    0.88425   1.00
C3       0.92789    0.61996    0.88238   1.00
C3       0.88958    0.70646    0.93976   1.00
C3       0.88991    0.62330    0.94270   1.00
C2       0.91315    0.76905    0.90990   1.00
C2       0.90858    0.55878    0.91347   1.00
C3       0.93510    0.74689    0.88320   1.00
C3       0.92741    0.57909    0.88316   1.00
C3       0.89089    0.74804    0.93756   1.00
C3       0.89028    0.58164    0.94254   1.00
H1       0.95175    0.69263    0.86424   1.00
H1       0.94161    0.63194    0.85896   1.00
C5       0.86729    0.68665    0.96913   1.00
C5       0.86996    0.64502    0.97239   1.00
H1       0.95207    0.76049    0.86259   1.00
H1       0.94099    0.56409    0.86105   1.00
H1       0.87546    0.76448    0.95685   1.00
H1       0.87654    0.56652    0.96405   1.00
C6       0.84096    0.70985    0.99597   1.00
C6       0.85239    0.62381    1.00695   1.00
H2       0.82522    0.73155    0.97887   1.00
H2       0.87300    0.60190    1.01725   1.00
H2       0.81720    0.69214    1.00727   1.00
H2       0.84995    0.64272    1.03230   1.00
C6       0.86327    0.72894    1.03105   1.00
C6       0.81141    0.60558    0.99798   1.00
H2       0.89039    0.74208    1.02058   1.00
H2       0.81213    0.59117    0.96953   1.00
C6       0.84105    0.76041    1.05560   1.00
C6       0.79442    0.57589    1.02826   1.00
H2       0.87233    0.70551    1.05068   1.00
H2       0.79063    0.62954    0.99473   1.00
C6       0.83255    0.79765    1.03130   1.00
C6       0.81901    0.53792    1.03006   1.00
C6       0.80223    0.74426    1.07221   1.00
C6       0.79179    0.59393    1.06963   1.00
C6       0.86722    0.77255    1.09055   1.00
C6       0.75253    0.56446    1.01531   1.00
H2       0.85932    0.80942    1.01863   1.00
H2       0.82196    0.52480    1.00117   1.00
H2       0.81230    0.79170    1.00755   1.00
H2       0.84821    0.54346    1.04130   1.00
H2       0.81951    0.82041    1.04936   1.00
H2       0.80546    0.51637    1.04919   1.00
H2       0.78836    0.76545    1.09152   1.00
H2       0.77736    0.57402    1.08989   1.00
H2       0.78167    0.73775    1.04883   1.00
H2       0.82075    0.60006    1.08126   1.00
H2       0.80729    0.71755    1.08877   1.00
H2       0.77530    0.62115    1.06904   1.00
H2       0.89492    0.78458    1.08039   1.00
H2       0.75279    0.55117    0.98635   1.00
H2       0.85303    0.79475    1.10847   1.00
H2       0.73949    0.54351    1.03546   1.00
H2       0.87360    0.74761    1.10929   1.00
H2       0.73351    0.58998    1.01424   1.00
C4       0.91169    0.91154    0.68475   1.00
C4       0.91195    0.91001    0.64309   1.00
C3       0.88425    0.93442    0.70603   1.00
C3       0.88238    0.92789    0.61996   1.00
C3       0.93976    0.88958    0.70646   1.00
C3       0.94270    0.88991    0.62330   1.00
C2       0.90990    0.91315    0.76905   1.00
C2       0.91347    0.90858    0.55878   1.00
C3       0.88320    0.93510    0.74689   1.00
C3       0.88316    0.92741    0.57909   1.00
C3       0.93756    0.89089    0.74804   1.00
C3       0.94254    0.89028    0.58164   1.00
H1       0.86424    0.95175    0.69263   1.00
H1       0.85896    0.94161    0.63194   1.00
C5       0.96913    0.86729    0.68665   1.00
C5       0.97239    0.86996    0.64502   1.00
H1       0.86259    0.95207    0.76049   1.00
H1       0.86105    0.94099    0.56409   1.00
H1       0.95685    0.87546    0.76448   1.00
H1       0.96405    0.87654    0.56652   1.00
C6       0.99597    0.84096    0.70985   1.00
C6       1.00695    0.85239    0.62381   1.00
H2       0.97887    0.82522    0.73155   1.00
H2       1.01725    0.87300    0.60190   1.00
H2       1.00727    0.81720    0.69214   1.00
H2       1.03230    0.84995    0.64272   1.00
C6       1.03105    0.86327    0.72894   1.00
C6       0.99798    0.81141    0.60558   1.00
H2       1.02058    0.89039    0.74208   1.00
H2       0.96953    0.81213    0.59117   1.00
C6       1.05560    0.84105    0.76041   1.00
C6       1.02826    0.79442    0.57589   1.00
H2       1.05068    0.87233    0.70551   1.00
H2       0.99473    0.79063    0.62954   1.00
C6       1.03130    0.83255    0.79765   1.00
C6       1.03006    0.81901    0.53792   1.00
C6       1.07221    0.80223    0.74426   1.00
C6       1.06963    0.79179    0.59393   1.00
C6       1.09055    0.86722    0.77255   1.00
C6       1.01531    0.75253    0.56446   1.00
H2       1.01863    0.85932    0.80942   1.00
H2       1.00117    0.82196    0.52480   1.00
H2       1.00755    0.81230    0.79170   1.00
H2       1.04130    0.84821    0.54346   1.00
H2       1.04936    0.81951    0.82041   1.00
H2       1.04919    0.80546    0.51637   1.00
H2       1.09152    0.78836    0.76545   1.00
H2       1.08989    0.77736    0.57402   1.00
H2       1.04883    0.78167    0.73775   1.00
H2       1.08126    0.82075    0.60006   1.00
H2       1.08877    0.80729    0.71755   1.00
H2       1.06904    0.77530    0.62115   1.00
H2       1.08039    0.89492    0.78458   1.00
H2       0.98635    0.75279    0.55117   1.00
H2       1.10847    0.85303    0.79475   1.00
H2       1.03546    0.73949    0.54351   1.00
H2       1.10929    0.87360    0.74761   1.00
H2       1.01424    0.73351    0.58998   1.00
C4       0.41169    0.41846    1.14525   1.00
C4       0.41195    0.41999    1.18691   1.00
C3       0.38425    0.39558    1.12397   1.00
C3       0.38238    0.40211    1.21004   1.00
C3       0.43976    0.44042    1.12354   1.00
C3       0.44270    0.44009    1.20670   1.00
C2       0.40990    0.41685    1.06095   1.00
C2       0.41347    0.42142    1.27122   1.00
C3       0.38320    0.39490    1.08311   1.00
C3       0.38316    0.40259    1.25091   1.00
C3       0.43756    0.43911    1.08196   1.00
C3       0.44254    0.43972    1.24836   1.00
H1       0.36424    0.37825    1.13737   1.00
H1       0.35896    0.38839    1.19806   1.00
C5       0.46913    0.46271    1.14335   1.00
C5       0.47239    0.46004    1.18498   1.00
H1       0.36259    0.37793    1.06951   1.00
H1       0.36105    0.38901    1.26591   1.00
H1       0.45685    0.45454    1.06552   1.00
H1       0.46405    0.45346    1.26348   1.00
C6       0.49597    0.48904    1.12015   1.00
C6       0.50695    0.47761    1.20619   1.00
H2       0.47887    0.50478    1.09845   1.00
H2       0.51725    0.45700    1.22810   1.00
H2       0.50727    0.51280    1.13786   1.00
H2       0.53230    0.48005    1.18728   1.00
C6       0.53105    0.46673    1.10106   1.00
C6       0.49798    0.51859    1.22442   1.00
H2       0.52058    0.43961    1.08792   1.00
H2       0.46953    0.51787    1.23883   1.00
C6       0.55560    0.48895    1.06959   1.00
C6       0.52826    0.53558    1.25411   1.00
H2       0.55068    0.45767    1.12449   1.00
H2       0.49473    0.53937    1.20046   1.00
C6       0.53130    0.49745    1.03235   1.00
C6       0.53006    0.51099    1.29208   1.00
C6       0.57221    0.52777    1.08574   1.00
C6       0.56963    0.53821    1.23607   1.00
C6       0.59055    0.46278    1.05745   1.00
C6       0.51531    0.57747    1.26554   1.00
H2       0.51863    0.47068    1.02058   1.00
H2       0.50117    0.50804    1.30520   1.00
H2       0.50755    0.51770    1.03830   1.00
H2       0.54130    0.48179    1.28654   1.00
H2       0.54936    0.51049    1.00959   1.00
H2       0.54919    0.52454    1.31363   1.00
H2       0.59152    0.54164    1.06455   1.00
H2       0.58989    0.55264    1.25598   1.00
H2       0.54883    0.54833    1.09225   1.00
H2       0.58126    0.50925    1.22994   1.00
H2       0.58877    0.52271    1.11245   1.00
H2       0.56904    0.55470    1.20885   1.00
H2       0.58039    0.43508    1.04542   1.00
H2       0.48635    0.57721    1.27883   1.00
H2       0.60847    0.47697    1.03525   1.00
H2       0.53546    0.59051    1.28649   1.00
H2       0.60929    0.45640    1.08239   1.00
H2       0.51424    0.59649    1.24002   1.00
C4       0.41846    0.64525    0.91169   1.00
C4       0.41999    0.68691    0.91195   1.00
C3       0.39558    0.62397    0.88425   1.00
C3       0.40211    0.71004    0.88238   1.00
C3       0.44042    0.62354    0.93976   1.00
C3       0.44009    0.70670    0.94270   1.00
C2       0.41685    0.56095    0.90990   1.00
C2       0.42142    0.77122    0.91347   1.00
C3       0.39490    0.58311    0.88320   1.00
C3       0.40259    0.75091    0.88316   1.00
C3       0.43911    0.58196    0.93756   1.00
C3       0.43972    0.74836    0.94254   1.00
H1       0.37825    0.63737    0.86424   1.00
H1       0.38839    0.69806    0.85896   1.00
C5       0.46271    0.64335    0.96913   1.00
C5       0.46004    0.68498    0.97239   1.00
H1       0.37793    0.56951    0.86259   1.00
H1       0.38901    0.76591    0.86105   1.00
H1       0.45454    0.56552    0.95685   1.00
H1       0.45346    0.76348    0.96405   1.00
C6       0.48904    0.62015    0.99597   1.00
C6       0.47761    0.70619    1.00695   1.00
H2       0.50478    0.59845    0.97887   1.00
H2       0.45700    0.72810    1.01725   1.00
H2       0.51280    0.63786    1.00727   1.00
H2       0.48005    0.68728    1.03230   1.00
C6       0.46673    0.60106    1.03105   1.00
C6       0.51859    0.72442    0.99798   1.00
H2       0.43961    0.58792    1.02058   1.00
H2       0.51787    0.73883    0.96953   1.00
C6       0.48895    0.56959    1.05560   1.00
C6       0.53558    0.75411    1.02826   1.00
H2       0.45767    0.62449    1.05068   1.00
H2       0.53937    0.70046    0.99473   1.00
C6       0.49745    0.53235    1.03130   1.00
C6       0.51099    0.79208    1.03006   1.00
C6       0.52777    0.58574    1.07221   1.00
C6       0.53821    0.73607    1.06963   1.00
C6       0.46278    0.55745    1.09055   1.00
C6       0.57747    0.76554    1.01531   1.00
H2       0.47068    0.52058    1.01863   1.00
H2       0.50804    0.80520    1.00117   1.00
H2       0.51770    0.53830    1.00755   1.00
H2       0.48179    0.78654    1.04130   1.00
H2       0.51049    0.50959    1.04936   1.00
H2       0.52454    0.81363    1.04919   1.00
H2       0.54164    0.56455    1.09152   1.00
H2       0.55264    0.75598    1.08989   1.00
H2       0.54833    0.59225    1.04883   1.00
H2       0.50925    0.72994    1.08126   1.00
H2       0.52271    0.61245    1.08877   1.00
H2       0.55470    0.70885    1.06904   1.00
H2       0.43508    0.54542    1.08039   1.00
H2       0.57721    0.77883    0.98635   1.00
H2       0.47697    0.53525    1.10847   1.00
H2       0.59051    0.78649    1.03546   1.00
H2       0.45640    0.58239    1.10929   1.00
H2       0.59649    0.74002    1.01424   1.00
C4       0.18475    0.41169    0.91154   1.00
C4       0.14309    0.41195    0.91001   1.00
C3       0.20603    0.38425    0.93442   1.00
C3       0.11996    0.38238    0.92789   1.00
C3       0.20646    0.43976    0.88958   1.00
C3       0.12330    0.44270    0.88991   1.00
C2       0.26905    0.40990    0.91315   1.00
C2       0.05878    0.41347    0.90858   1.00
C3       0.24689    0.38320    0.93510   1.00
C3       0.07909    0.38316    0.92741   1.00
C3       0.24804    0.43756    0.89089   1.00
C3       0.08164    0.44254    0.89028   1.00
H1       0.19263    0.36424    0.95175   1.00
H1       0.13194    0.35896    0.94161   1.00
C5       0.18665    0.46913    0.86729   1.00
C5       0.14502    0.47239    0.86996   1.00
H1       0.26049    0.36259    0.95207   1.00
H1       0.06409    0.36105    0.94099   1.00
H1       0.26448    0.45685    0.87546   1.00
H1       0.06652    0.46405    0.87654   1.00
C6       0.20985    0.49597    0.84096   1.00
C6       0.12381    0.50695    0.85239   1.00
H2       0.23155    0.47887    0.82522   1.00
H2       0.10190    0.51725    0.87300   1.00
H2       0.19214    0.50727    0.81720   1.00
H2       0.14272    0.53230    0.84995   1.00
C6       0.22894    0.53105    0.86327   1.00
C6       0.10558    0.49798    0.81141   1.00
H2       0.24208    0.52058    0.89039   1.00
H2       0.09117    0.46953    0.81213   1.00
C6       0.26041    0.55560    0.84105   1.00
C6       0.07589    0.52826    0.79442   1.00
H2       0.20551    0.55068    0.87233   1.00
H2       0.12954    0.49473    0.79063   1.00
C6       0.29765    0.53130    0.83255   1.00
C6       0.03792    0.53006    0.81901   1.00
C6       0.24426    0.57221    0.80223   1.00
C6       0.09393    0.56963    0.79179   1.00
C6       0.27255    0.59055    0.86722   1.00
C6       0.06446    0.51531    0.75253   1.00
H2       0.30942    0.51863    0.85932   1.00
H2       0.02480    0.50117    0.82196   1.00
H2       0.29170    0.50755    0.81230   1.00
H2       0.04346    0.54130    0.84821   1.00
H2       0.32041    0.54936    0.81951   1.00
H2       0.01637    0.54919    0.80546   1.00
H2       0.26545    0.59152    0.78836   1.00
H2       0.07402    0.58989    0.77736   1.00
H2       0.23775    0.54883    0.78167   1.00
H2       0.10006    0.58126    0.82075   1.00
H2       0.21755    0.58877    0.80729   1.00
H2       0.12115    0.56904    0.77530   1.00
H2       0.28458    0.58039    0.89492   1.00
H2       0.05117    0.48635    0.75279   1.00
H2       0.29475    0.60847    0.85303   1.00
H2       0.04351    0.53546    0.73949   1.00
H2       0.24761    0.60929    0.87360   1.00
H2       0.08998    0.51424    0.73351   1.00
C4       0.64525    0.41169    0.91846   1.00
C4       0.68691    0.41195    0.91999   1.00
C3       0.62397    0.38425    0.89558   1.00
C3       0.71004    0.38238    0.90211   1.00
C3       0.62354    0.43976    0.94042   1.00
C3       0.70670    0.44270    0.94009   1.00
C2       0.56095    0.40990    0.91685   1.00
C2       0.77122    0.41347    0.92142   1.00
C3       0.58311    0.38320    0.89490   1.00
C3       0.75091    0.38316    0.90259   1.00
C3       0.58196    0.43756    0.93911   1.00
C3       0.74836    0.44254    0.93972   1.00
H1       0.63737    0.36424    0.87825   1.00
H1       0.69806    0.35896    0.88839   1.00
C5       0.64335    0.46913    0.96271   1.00
C5       0.68498    0.47239    0.96004   1.00
H1       0.56951    0.36259    0.87793   1.00
H1       0.76591    0.36105    0.88901   1.00
H1       0.56552    0.45685    0.95454   1.00
H1       0.76348    0.46405    0.95346   1.00
C6       0.62015    0.49597    0.98904   1.00
C6       0.70619    0.50695    0.97761   1.00
H2       0.59845    0.47887    1.00478   1.00
H2       0.72810    0.51725    0.95700   1.00
H2       0.63786    0.50727    1.01280   1.00
H2       0.68728    0.53230    0.98005   1.00
C6       0.60106    0.53105    0.96673   1.00
C6       0.72442    0.49798    1.01859   1.00
H2       0.58792    0.52058    0.93961   1.00
H2       0.73883    0.46953    1.01787   1.00
C6       0.56959    0.55560    0.98895   1.00
C6       0.75411    0.52826    1.03558   1.00
H2       0.62449    0.55068    0.95767   1.00
H2       0.70046    0.49473    1.03937   1.00
C6       0.53235    0.53130    0.99745   1.00
C6       0.79208    0.53006    1.01099   1.00
C6       0.58574    0.57221    1.02777   1.00
C6       0.73607    0.56963    1.03821   1.00
C6       0.55745    0.59055    0.96278   1.00
C6       0.76554    0.51531    1.07747   1.00
H2       0.52058    0.51863    0.97068   1.00
H2       0.80520    0.50117    1.00804   1.00
H2       0.53830    0.50755    1.01770   1.00
H2       0.78654    0.54130    0.98179   1.00
H2       0.50959    0.54936    1.01049   1.00
H2       0.81363    0.54919    1.02454   1.00
H2       0.56455    0.59152    1.04164   1.00
H2       0.75598    0.58989    1.05264   1.00
H2       0.59225    0.54883    1.04833   1.00
H2       0.72994    0.58126    1.00925   1.00
H2       0.61245    0.58877    1.02271   1.00
H2       0.70885    0.56904    1.05470   1.00
H2       0.54542    0.58039    0.93508   1.00
H2       0.77883    0.48635    1.07721   1.00
H2       0.53525    0.60847    0.97697   1.00
H2       0.78649    0.53546    1.09051   1.00
H2       0.58239    0.60929    0.95640   1.00
H2       0.74002    0.51424    1.09649   1.00
C4       0.41154    0.18475    0.91169   1.00
C4       0.41001    0.14309    0.91195   1.00
C3       0.43442    0.20603    0.88425   1.00
C3       0.42789    0.11996    0.88238   1.00
C3       0.38958    0.20646    0.93976   1.00
C3       0.38991    0.12330    0.94270   1.00
C2       0.41315    0.26905    0.90990   1.00
C2       0.40858    0.05878    0.91347   1.00
C3       0.43510    0.24689    0.88320   1.00
C3       0.42741    0.07909    0.88316   1.00
C3       0.39089    0.24804    0.93756   1.00
C3       0.39028    0.08164    0.94254   1.00
H1       0.45175    0.19263    0.86424   1.00
H1       0.44161    0.13194    0.85896   1.00
C5       0.36729    0.18665    0.96913   1.00
C5       0.36996    0.14502    0.97239   1.00
H1       0.45207    0.26049    0.86259   1.00
H1       0.44099    0.06409    0.86105   1.00
H1       0.37546    0.26448    0.95685   1.00
H1       0.37654    0.06652    0.96405   1.00
C6       0.34096    0.20985    0.99597   1.00
C6       0.35239    0.12381    1.00695   1.00
H2       0.32522    0.23155    0.97887   1.00
H2       0.37300    0.10190    1.01725   1.00
H2       0.31720    0.19214    1.00727   1.00
H2       0.34995    0.14272    1.03230   1.00
C6       0.36327    0.22894    1.03105   1.00
C6       0.31141    0.10558    0.99798   1.00
H2       0.39039    0.24208    1.02058   1.00
H2       0.31213    0.09117    0.96953   1.00
C6       0.34105    0.26041    1.05560   1.00
C6       0.29442    0.07589    1.02826   1.00
H2       0.37233    0.20551    1.05068   1.00
H2       0.29063    0.12954    0.99473   1.00
C6       0.33255    0.29765    1.03130   1.00
C6       0.31901    0.03792    1.03006   1.00
C6       0.30223    0.24426    1.07221   1.00
C6       0.29179    0.09393    1.06963   1.00
C6       0.36722    0.27255    1.09055   1.00
C6       0.25253    0.06446    1.01531   1.00
H2       0.35932    0.30942    1.01863   1.00
H2       0.32196    0.02480    1.00117   1.00
H2       0.31230    0.29170    1.00755   1.00
H2       0.34821    0.04346    1.04130   1.00
H2       0.31951    0.32041    1.04936   1.00
H2       0.30546    0.01637    1.04919   1.00
H2       0.28836    0.26545    1.09152   1.00
H2       0.27736    0.07402    1.08989   1.00
H2       0.28167    0.23775    1.04883   1.00
H2       0.32075    0.10006    1.08126   1.00
H2       0.30729    0.21755    1.08877   1.00
H2       0.27530    0.12115    1.06904   1.00
H2       0.39492    0.28458    1.08039   1.00
H2       0.25279    0.05117    0.98635   1.00
H2       0.35303    0.29475    1.10847   1.00
H2       0.23949    0.04351    1.03546   1.00
H2       0.37360    0.24761    1.10929   1.00
H2       0.23351    0.08998    1.01424   1.00
C4       0.41169    0.41154    0.68475   1.00
C4       0.41195    0.41001    0.64309   1.00
C3       0.38425    0.43442    0.70603   1.00
C3       0.38238    0.42789    0.61996   1.00
C3       0.43976    0.38958    0.70646   1.00
C3       0.44270    0.38991    0.62330   1.00
C2       0.40990    0.41315    0.76905   1.00
C2       0.41347    0.40858    0.55878   1.00
C3       0.38320    0.43510    0.74689   1.00
C3       0.38316    0.42741    0.57909   1.00
C3       0.43756    0.39089    0.74804   1.00
C3       0.44254    0.39028    0.58164   1.00
H1       0.36424    0.45175    0.69263   1.00
H1       0.35896    0.44161    0.63194   1.00
C5       0.46913    0.36729    0.68665   1.00
C5       0.47239    0.36996    0.64502   1.00
H1       0.36259    0.45207    0.76049   1.00
H1       0.36105    0.44099    0.56409   1.00
H1       0.45685    0.37546    0.76448   1.00
H1       0.46405    0.37654    0.56652   1.00
C6       0.49597    0.34096    0.70985   1.00
C6       0.50695    0.35239    0.62381   1.00
H2       0.47887    0.32522    0.73155   1.00
H2       0.51725    0.37300    0.60190   1.00
H2       0.50727    0.31720    0.69214   1.00
H2       0.53230    0.34995    0.64272   1.00
C6       0.53105    0.36327    0.72894   1.00
C6       0.49798    0.31141    0.60558   1.00
H2       0.52058    0.39039    0.74208   1.00
H2       0.46953    0.31213    0.59117   1.00
C6       0.55560    0.34105    0.76041   1.00
C6       0.52826    0.29442    0.57589   1.00
H2       0.55068    0.37233    0.70551   1.00
H2       0.49473    0.29063    0.62954   1.00
C6       0.53130    0.33255    0.79765   1.00
C6       0.53006    0.31901    0.53792   1.00
C6       0.57221    0.30223    0.74426   1.00
C6       0.56963    0.29179    0.59393   1.00
C6       0.59055    0.36722    0.77255   1.00
C6       0.51531    0.25253    0.56446   1.00
H2       0.51863    0.35932    0.80942   1.00
H2       0.50117    0.32196    0.52480   1.00
H2       0.50755    0.31230    0.79170   1.00
H2       0.54130    0.34821    0.54346   1.00
H2       0.54936    0.31951    0.82041   1.00
H2       0.54919    0.30546    0.51637   1.00
H2       0.59152    0.28836    0.76545   1.00
H2       0.58989    0.27736    0.57402   1.00
H2       0.54883    0.28167    0.73775   1.00
H2       0.58126    0.32075    0.60006   1.00
H2       0.58877    0.30729    0.71755   1.00
H2       0.56904    0.27530    0.62115   1.00
H2       0.58039    0.39492    0.78458   1.00
H2       0.48635    0.25279    0.55117   1.00
H2       0.60847    0.35303    0.79475   1.00
H2       0.53546    0.23949    0.54351   1.00
H2       0.60929    0.37360    0.74761   1.00
H2       0.51424    0.23351    0.58998   1.00
C4       0.41169    0.91846    0.64525   1.00
C4       0.41195    0.91999    0.68691   1.00
C3       0.38425    0.89558    0.62397   1.00
C3       0.38238    0.90211    0.71004   1.00
C3       0.43976    0.94042    0.62354   1.00
C3       0.44270    0.94009    0.70670   1.00
C2       0.40990    0.91685    0.56095   1.00
C2       0.41347    0.92142    0.77122   1.00
C3       0.38320    0.89490    0.58311   1.00
C3       0.38316    0.90259    0.75091   1.00
C3       0.43756    0.93911    0.58196   1.00
C3       0.44254    0.93972    0.74836   1.00
H1       0.36424    0.87825    0.63737   1.00
H1       0.35896    0.88839    0.69806   1.00
C5       0.46913    0.96271    0.64335   1.00
C5       0.47239    0.96004    0.68498   1.00
H1       0.36259    0.87793    0.56951   1.00
H1       0.36105    0.88901    0.76591   1.00
H1       0.45685    0.95454    0.56552   1.00
H1       0.46405    0.95346    0.76348   1.00
C6       0.49597    0.98904    0.62015   1.00
C6       0.50695    0.97761    0.70619   1.00
H2       0.47887    1.00478    0.59845   1.00
H2       0.51725    0.95700    0.72810   1.00
H2       0.50727    1.01280    0.63786   1.00
H2       0.53230    0.98005    0.68728   1.00
C6       0.53105    0.96673    0.60106   1.00
C6       0.49798    1.01859    0.72442   1.00
H2       0.52058    0.93961    0.58792   1.00
H2       0.46953    1.01787    0.73883   1.00
C6       0.55560    0.98895    0.56959   1.00
C6       0.52826    1.03558    0.75411   1.00
H2       0.55068    0.95767    0.62449   1.00
H2       0.49473    1.03937    0.70046   1.00
C6       0.53130    0.99745    0.53235   1.00
C6       0.53006    1.01099    0.79208   1.00
C6       0.57221    1.02777    0.58574   1.00
C6       0.56963    1.03821    0.73607   1.00
C6       0.59055    0.96278    0.55745   1.00
C6       0.51531    1.07747    0.76554   1.00
H2       0.51863    0.97068    0.52058   1.00
H2       0.50117    1.00804    0.80520   1.00
H2       0.50755    1.01770    0.53830   1.00
H2       0.54130    0.98179    0.78654   1.00
H2       0.54936    1.01049    0.50959   1.00
H2       0.54919    1.02454    0.81363   1.00
H2       0.59152    1.04164    0.56455   1.00
H2       0.58989    1.05264    0.75598   1.00
H2       0.54883    1.04833    0.59225   1.00
H2       0.58126    1.00925    0.72994   1.00
H2       0.58877    1.02271    0.61245   1.00
H2       0.56904    1.05470    0.70885   1.00
H2       0.58039    0.93508    0.54542   1.00
H2       0.48635    1.07721    0.77883   1.00
H2       0.60847    0.97697    0.53525   1.00
H2       0.53546    1.09051    0.78649   1.00
H2       0.60929    0.95640    0.58239   1.00
H2       0.51424    1.09649    0.74002   1.00
C4       0.41846    1.14525    0.41169   1.00
C4       0.41999    1.18691    0.41195   1.00
C3       0.39558    1.12397    0.38425   1.00
C3       0.40211    1.21004    0.38238   1.00
C3       0.44042    1.12354    0.43976   1.00
C3       0.44009    1.20670    0.44270   1.00
C2       0.41685    1.06095    0.40990   1.00
C2       0.42142    1.27122    0.41347   1.00
C3       0.39490    1.08311    0.38320   1.00
C3       0.40259    1.25091    0.38316   1.00
C3       0.43911    1.08196    0.43756   1.00
C3       0.43972    1.24836    0.44254   1.00
H1       0.37825    1.13737    0.36424   1.00
H1       0.38839    1.19806    0.35896   1.00
C5       0.46271    1.14335    0.46913   1.00
C5       0.46004    1.18498    0.47239   1.00
H1       0.37793    1.06951    0.36259   1.00
H1       0.38901    1.26591    0.36105   1.00
H1       0.45454    1.06552    0.45685   1.00
H1       0.45346    1.26348    0.46405   1.00
C6       0.48904    1.12015    0.49597   1.00
C6       0.47761    1.20619    0.50695   1.00
H2       0.50478    1.09845    0.47887   1.00
H2       0.45700    1.22810    0.51725   1.00
H2       0.51280    1.13786    0.50727   1.00
H2       0.48005    1.18728    0.53230   1.00
C6       0.46673    1.10106    0.53105   1.00
C6       0.51859    1.22442    0.49798   1.00
H2       0.43961    1.08792    0.52058   1.00
H2       0.51787    1.23883    0.46953   1.00
C6       0.48895    1.06959    0.55560   1.00
C6       0.53558    1.25411    0.52826   1.00
H2       0.45767    1.12449    0.55068   1.00
H2       0.53937    1.20046    0.49473   1.00
C6       0.49745    1.03235    0.53130   1.00
C6       0.51099    1.29208    0.53006   1.00
C6       0.52777    1.08574    0.57221   1.00
C6       0.53821    1.23607    0.56963   1.00
C6       0.46278    1.05745    0.59055   1.00
C6       0.57747    1.26554    0.51531   1.00
H2       0.47068    1.02058    0.51863   1.00
H2       0.50804    1.30520    0.50117   1.00
H2       0.51770    1.03830    0.50755   1.00
H2       0.48179    1.28654    0.54130   1.00
H2       0.51049    1.00959    0.54936   1.00
H2       0.52454    1.31363    0.54919   1.00
H2       0.54164    1.06455    0.59152   1.00
H2       0.55264    1.25598    0.58989   1.00
H2       0.54833    1.09225    0.54883   1.00
H2       0.50925    1.22994    0.58126   1.00
H2       0.52271    1.11245    0.58877   1.00
H2       0.55470    1.20885    0.56904   1.00
H2       0.43508    1.04542    0.58039   1.00
H2       0.57721    1.27883    0.48635   1.00
H2       0.47697    1.03525    0.60847   1.00
H2       0.59051    1.28649    0.53546   1.00
H2       0.45640    1.08239    0.60929   1.00
H2       0.59649    1.24002    0.51424   1.00
C4       0.18475    0.91169    0.41154   1.00
C4       0.14309    0.91195    0.41001   1.00
C3       0.20603    0.88425    0.43442   1.00
C3       0.11996    0.88238    0.42789   1.00
C3       0.20646    0.93976    0.38958   1.00
C3       0.12330    0.94270    0.38991   1.00
C2       0.26905    0.90990    0.41315   1.00
C2       0.05878    0.91347    0.40858   1.00
C3       0.24689    0.88320    0.43510   1.00
C3       0.07909    0.88316    0.42741   1.00
C3       0.24804    0.93756    0.39089   1.00
C3       0.08164    0.94254    0.39028   1.00
H1       0.19263    0.86424    0.45175   1.00
H1       0.13194    0.85896    0.44161   1.00
C5       0.18665    0.96913    0.36729   1.00
C5       0.14502    0.97239    0.36996   1.00
H1       0.26049    0.86259    0.45207   1.00
H1       0.06409    0.86105    0.44099   1.00
H1       0.26448    0.95685    0.37546   1.00
H1       0.06652    0.96405    0.37654   1.00
C6       0.20985    0.99597    0.34096   1.00
C6       0.12381    1.00695    0.35239   1.00
H2       0.23155    0.97887    0.32522   1.00
H2       0.10190    1.01725    0.37300   1.00
H2       0.19214    1.00727    0.31720   1.00
H2       0.14272    1.03230    0.34995   1.00
C6       0.22894    1.03105    0.36327   1.00
C6       0.10558    0.99798    0.31141   1.00
H2       0.24208    1.02058    0.39039   1.00
H2       0.09117    0.96953    0.31213   1.00
C6       0.26041    1.05560    0.34105   1.00
C6       0.07589    1.02826    0.29442   1.00
H2       0.20551    1.05068    0.37233   1.00
H2       0.12954    0.99473    0.29063   1.00
C6       0.29765    1.03130    0.33255   1.00
C6       0.03792    1.03006    0.31901   1.00
C6       0.24426    1.07221    0.30223   1.00
C6       0.09393    1.06963    0.29179   1.00
C6       0.27255    1.09055    0.36722   1.00
C6       0.06446    1.01531    0.25253   1.00
H2       0.30942    1.01863    0.35932   1.00
H2       0.02480    1.00117    0.32196   1.00
H2       0.29170    1.00755    0.31230   1.00
H2       0.04346    1.04130    0.34821   1.00
H2       0.32041    1.04936    0.31951   1.00
H2       0.01637    1.04919    0.30546   1.00
H2       0.26545    1.09152    0.28836   1.00
H2       0.07402    1.08989    0.27736   1.00
H2       0.23775    1.04883    0.28167   1.00
H2       0.10006    1.08126    0.32075   1.00
H2       0.21755    1.08877    0.30729   1.00
H2       0.12115    1.06904    0.27530   1.00
H2       0.28458    1.08039    0.39492   1.00
H2       0.05117    0.98635    0.25279   1.00
H2       0.29475    1.10847    0.35303   1.00
H2       0.04351    1.03546    0.23949   1.00
H2       0.24761    1.10929    0.37360   1.00
H2       0.08998    1.01424    0.23351   1.00
C4       0.64525    0.91169    0.41846   1.00
C4       0.68691    0.91195    0.41999   1.00
C3       0.62397    0.88425    0.39558   1.00
C3       0.71004    0.88238    0.40211   1.00
C3       0.62354    0.93976    0.44042   1.00
C3       0.70670    0.94270    0.44009   1.00
C2       0.56095    0.90990    0.41685   1.00
C2       0.77122    0.91347    0.42142   1.00
C3       0.58311    0.88320    0.39490   1.00
C3       0.75091    0.88316    0.40259   1.00
C3       0.58196    0.93756    0.43911   1.00
C3       0.74836    0.94254    0.43972   1.00
H1       0.63737    0.86424    0.37825   1.00
H1       0.69806    0.85896    0.38839   1.00
C5       0.64335    0.96913    0.46271   1.00
C5       0.68498    0.97239    0.46004   1.00
H1       0.56951    0.86259    0.37793   1.00
H1       0.76591    0.86105    0.38901   1.00
H1       0.56552    0.95685    0.45454   1.00
H1       0.76348    0.96405    0.45346   1.00
C6       0.62015    0.99597    0.48904   1.00
C6       0.70619    1.00695    0.47761   1.00
H2       0.59845    0.97887    0.50478   1.00
H2       0.72810    1.01725    0.45700   1.00
H2       0.63786    1.00727    0.51280   1.00
H2       0.68728    1.03230    0.48005   1.00
C6       0.60106    1.03105    0.46673   1.00
C6       0.72442    0.99798    0.51859   1.00
H2       0.58792    1.02058    0.43961   1.00
H2       0.73883    0.96953    0.51787   1.00
C6       0.56959    1.05560    0.48895   1.00
C6       0.75411    1.02826    0.53558   1.00
H2       0.62449    1.05068    0.45767   1.00
H2       0.70046    0.99473    0.53937   1.00
C6       0.53235    1.03130    0.49745   1.00
C6       0.79208    1.03006    0.51099   1.00
C6       0.58574    1.07221    0.52777   1.00
C6       0.73607    1.06963    0.53821   1.00
C6       0.55745    1.09055    0.46278   1.00
C6       0.76554    1.01531    0.57747   1.00
H2       0.52058    1.01863    0.47068   1.00
H2       0.80520    1.00117    0.50804   1.00
H2       0.53830    1.00755    0.51770   1.00
H2       0.78654    1.04130    0.48179   1.00
H2       0.50959    1.04936    0.51049   1.00
H2       0.81363    1.04919    0.52454   1.00
H2       0.56455    1.09152    0.54164   1.00
H2       0.75598    1.08989    0.55264   1.00
H2       0.59225    1.04883    0.54833   1.00
H2       0.72994    1.08126    0.50925   1.00
H2       0.61245    1.08877    0.52271   1.00
H2       0.70885    1.06904    0.55470   1.00
H2       0.54542    1.08039    0.43508   1.00
H2       0.77883    0.98635    0.57721   1.00
H2       0.53525    1.10847    0.47697   1.00
H2       0.78649    1.03546    0.59051   1.00
H2       0.58239    1.10929    0.45640   1.00
H2       0.74002    1.01424    0.59649   1.00
C4       0.41154    0.68475    0.41169   1.00
C4       0.41001    0.64309    0.41195   1.00
C3       0.43442    0.70603    0.38425   1.00
C3       0.42789    0.61996    0.38238   1.00
C3       0.38958    0.70646    0.43976   1.00
C3       0.38991    0.62330    0.44270   1.00
C2       0.41315    0.76905    0.40990   1.00
C2       0.40858    0.55878    0.41347   1.00
C3       0.43510    0.74689    0.38320   1.00
C3       0.42741    0.57909    0.38316   1.00
C3       0.39089    0.74804    0.43756   1.00
C3       0.39028    0.58164    0.44254   1.00
H1       0.45175    0.69263    0.36424   1.00
H1       0.44161    0.63194    0.35896   1.00
C5       0.36729    0.68665    0.46913   1.00
C5       0.36996    0.64502    0.47239   1.00
H1       0.45207    0.76049    0.36259   1.00
H1       0.44099    0.56409    0.36105   1.00
H1       0.37546    0.76448    0.45685   1.00
H1       0.37654    0.56652    0.46405   1.00
C6       0.34096    0.70985    0.49597   1.00
C6       0.35239    0.62381    0.50695   1.00
H2       0.32522    0.73155    0.47887   1.00
H2       0.37300    0.60190    0.51725   1.00
H2       0.31720    0.69214    0.50727   1.00
H2       0.34995    0.64272    0.53230   1.00
C6       0.36327    0.72894    0.53105   1.00
C6       0.31141    0.60558    0.49798   1.00
H2       0.39039    0.74208    0.52058   1.00
H2       0.31213    0.59117    0.46953   1.00
C6       0.34105    0.76041    0.55560   1.00
C6       0.29442    0.57589    0.52826   1.00
H2       0.37233    0.70551    0.55068   1.00
H2       0.29063    0.62954    0.49473   1.00
C6       0.33255    0.79765    0.53130   1.00
C6       0.31901    0.53792    0.53006   1.00
C6       0.30223    0.74426    0.57221   1.00
C6       0.29179    0.59393    0.56963   1.00
C6       0.36722    0.77255    0.59055   1.00
C6       0.25253    0.56446    0.51531   1.00
H2       0.35932    0.80942    0.51863   1.00
H2       0.32196    0.52480    0.50117   1.00
H2       0.31230    0.79170    0.50755   1.00
H2       0.34821    0.54346    0.54130   1.00
H2       0.31951    0.82041    0.54936   1.00
H2       0.30546    0.51637    0.54919   1.00
H2       0.28836    0.76545    0.59152   1.00
H2       0.27736    0.57402    0.58989   1.00
H2       0.28167    0.73775    0.54883   1.00
H2       0.32075    0.60006    0.58126   1.00
H2       0.30729    0.71755    0.58877   1.00
H2       0.27530    0.62115    0.56904   1.00
H2       0.39492    0.78458    0.58039   1.00
H2       0.25279    0.55117    0.48635   1.00
H2       0.35303    0.79475    0.60847   1.00
H2       0.23949    0.54351    0.53546   1.00
H2       0.37360    0.74761    0.60929   1.00
H2       0.23351    0.58998    0.51424   1.00
C4       0.41169    0.91154    0.18475   1.00
C4       0.41195    0.91001    0.14309   1.00
C3       0.38425    0.93442    0.20603   1.00
C3       0.38238    0.92789    0.11996   1.00
C3       0.43976    0.88958    0.20646   1.00
C3       0.44270    0.88991    0.12330   1.00
C2       0.40990    0.91315    0.26905   1.00
C2       0.41347    0.90858    0.05878   1.00
C3       0.38320    0.93510    0.24689   1.00
C3       0.38316    0.92741    0.07909   1.00
C3       0.43756    0.89089    0.24804   1.00
C3       0.44254    0.89028    0.08164   1.00
H1       0.36424    0.95175    0.19263   1.00
H1       0.35896    0.94161    0.13194   1.00
C5       0.46913    0.86729    0.18665   1.00
C5       0.47239    0.86996    0.14502   1.00
H1       0.36259    0.95207    0.26049   1.00
H1       0.36105    0.94099    0.06409   1.00
H1       0.45685    0.87546    0.26448   1.00
H1       0.46405    0.87654    0.06652   1.00
C6       0.49597    0.84096    0.20985   1.00
C6       0.50695    0.85239    0.12381   1.00
H2       0.47887    0.82522    0.23155   1.00
H2       0.51725    0.87300    0.10190   1.00
H2       0.50727    0.81720    0.19214   1.00
H2       0.53230    0.84995    0.14272   1.00
C6       0.53105    0.86327    0.22894   1.00
C6       0.49798    0.81141    0.10558   1.00
H2       0.52058    0.89039    0.24208   1.00
H2       0.46953    0.81213    0.09117   1.00
C6       0.55560    0.84105    0.26041   1.00
C6       0.52826    0.79442    0.07589   1.00
H2       0.55068    0.87233    0.20551   1.00
H2       0.49473    0.79063    0.12954   1.00
C6       0.53130    0.83255    0.29765   1.00
C6       0.53006    0.81901    0.03792   1.00
C6       0.57221    0.80223    0.24426   1.00
C6       0.56963    0.79179    0.09393   1.00
C6       0.59055    0.86722    0.27255   1.00
C6       0.51531    0.75253    0.06446   1.00
H2       0.51863    0.85932    0.30942   1.00
H2       0.50117    0.82196    0.02480   1.00
H2       0.50755    0.81230    0.29170   1.00
H2       0.54130    0.84821    0.04346   1.00
H2       0.54936    0.81951    0.32041   1.00
H2       0.54919    0.80546    0.01637   1.00
H2       0.59152    0.78836    0.26545   1.00
H2       0.58989    0.77736    0.07402   1.00
H2       0.54883    0.78167    0.23775   1.00
H2       0.58126    0.82075    0.10006   1.00
H2       0.58877    0.80729    0.21755   1.00
H2       0.56904    0.77530    0.12115   1.00
H2       0.58039    0.89492    0.28458   1.00
H2       0.48635    0.75279    0.05117   1.00
H2       0.60847    0.85303    0.29475   1.00
H2       0.53546    0.73949    0.04351   1.00
H2       0.60929    0.87360    0.24761   1.00
H2       0.51424    0.73351    0.08998   1.00
C4       0.91169    0.41846    0.64525   1.00
C4       0.91195    0.41999    0.68691   1.00
C3       0.88425    0.39558    0.62397   1.00
C3       0.88238    0.40211    0.71004   1.00
C3       0.93976    0.44042    0.62354   1.00
C3       0.94270    0.44009    0.70670   1.00
C2       0.90990    0.41685    0.56095   1.00
C2       0.91347    0.42142    0.77122   1.00
C3       0.88320    0.39490    0.58311   1.00
C3       0.88316    0.40259    0.75091   1.00
C3       0.93756    0.43911    0.58196   1.00
C3       0.94254    0.43972    0.74836   1.00
H1       0.86424    0.37825    0.63737   1.00
H1       0.85896    0.38839    0.69806   1.00
C5       0.96913    0.46271    0.64335   1.00
C5       0.97239    0.46004    0.68498   1.00
H1       0.86259    0.37793    0.56951   1.00
H1       0.86105    0.38901    0.76591   1.00
H1       0.95685    0.45454    0.56552   1.00
H1       0.96405    0.45346    0.76348   1.00
C6       0.99597    0.48904    0.62015   1.00
C6       1.00695    0.47761    0.70619   1.00
H2       0.97887    0.50478    0.59845   1.00
H2       1.01725    0.45700    0.72810   1.00
H2       1.00727    0.51280    0.63786   1.00
H2       1.03230    0.48005    0.68728   1.00
C6       1.03105    0.46673    0.60106   1.00
C6       0.99798    0.51859    0.72442   1.00
H2       1.02058    0.43961    0.58792   1.00
H2       0.96953    0.51787    0.73883   1.00
C6       1.05560    0.48895    0.56959   1.00
C6       1.02826    0.53558    0.75411   1.00
H2       1.05068    0.45767    0.62449   1.00
H2       0.99473    0.53937    0.70046   1.00
C6       1.03130    0.49745    0.53235   1.00
C6       1.03006    0.51099    0.79208   1.00
C6       1.07221    0.52777    0.58574   1.00
C6       1.06963    0.53821    0.73607   1.00
C6       1.09055    0.46278    0.55745   1.00
C6       1.01531    0.57747    0.76554   1.00
H2       1.01863    0.47068    0.52058   1.00
H2       1.00117    0.50804    0.80520   1.00
H2       1.00755    0.51770    0.53830   1.00
H2       1.04130    0.48179    0.78654   1.00
H2       1.04936    0.51049    0.50959   1.00
H2       1.04919    0.52454    0.81363   1.00
H2       1.09152    0.54164    0.56455   1.00
H2       1.08989    0.55264    0.75598   1.00
H2       1.04883    0.54833    0.59225   1.00
H2       1.08126    0.50925    0.72994   1.00
H2       1.08877    0.52271    0.61245   1.00
H2       1.06904    0.55470    0.70885   1.00
H2       1.08039    0.43508    0.54542   1.00
H2       0.98635    0.57721    0.77883   1.00
H2       1.10847    0.47697    0.53525   1.00
H2       1.03546    0.59051    0.78649   1.00
H2       1.10929    0.45640    0.58239   1.00
H2       1.01424    0.59649    0.74002   1.00
C4       0.91846    0.64525    0.41169   1.00
C4       0.91999    0.68691    0.41195   1.00
C3       0.89558    0.62397    0.38425   1.00
C3       0.90211    0.71004    0.38238   1.00
C3       0.94042    0.62354    0.43976   1.00
C3       0.94009    0.70670    0.44270   1.00
C2       0.91685    0.56095    0.40990   1.00
C2       0.92142    0.77122    0.41347   1.00
C3       0.89490    0.58311    0.38320   1.00
C3       0.90259    0.75091    0.38316   1.00
C3       0.93911    0.58196    0.43756   1.00
C3       0.93972    0.74836    0.44254   1.00
H1       0.87825    0.63737    0.36424   1.00
H1       0.88839    0.69806    0.35896   1.00
C5       0.96271    0.64335    0.46913   1.00
C5       0.96004    0.68498    0.47239   1.00
H1       0.87793    0.56951    0.36259   1.00
H1       0.88901    0.76591    0.36105   1.00
H1       0.95454    0.56552    0.45685   1.00
H1       0.95346    0.76348    0.46405   1.00
C6       0.98904    0.62015    0.49597   1.00
C6       0.97761    0.70619    0.50695   1.00
H2       1.00478    0.59845    0.47887   1.00
H2       0.95700    0.72810    0.51725   1.00
H2       1.01280    0.63786    0.50727   1.00
H2       0.98005    0.68728    0.53230   1.00
C6       0.96673    0.60106    0.53105   1.00
C6       1.01859    0.72442    0.49798   1.00
H2       0.93961    0.58792    0.52058   1.00
H2       1.01787    0.73883    0.46953   1.00
C6       0.98895    0.56959    0.55560   1.00
C6       1.03558    0.75411    0.52826   1.00
H2       0.95767    0.62449    0.55068   1.00
H2       1.03937    0.70046    0.49473   1.00
C6       0.99745    0.53235    0.53130   1.00
C6       1.01099    0.79208    0.53006   1.00
C6       1.02777    0.58574    0.57221   1.00
C6       1.03821    0.73607    0.56963   1.00
C6       0.96278    0.55745    0.59055   1.00
C6       1.07747    0.76554    0.51531   1.00
H2       0.97068    0.52058    0.51863   1.00
H2       1.00804    0.80520    0.50117   1.00
H2       1.01770    0.53830    0.50755   1.00
H2       0.98179    0.78654    0.54130   1.00
H2       1.01049    0.50959    0.54936   1.00
H2       1.02454    0.81363    0.54919   1.00
H2       1.04164    0.56455    0.59152   1.00
H2       1.05264    0.75598    0.58989   1.00
H2       1.04833    0.59225    0.54883   1.00
H2       1.00925    0.72994    0.58126   1.00
H2       1.02271    0.61245    0.58877   1.00
H2       1.05470    0.70885    0.56904   1.00
H2       0.93508    0.54542    0.58039   1.00
H2       1.07721    0.77883    0.48635   1.00
H2       0.97697    0.53525    0.60847   1.00
H2       1.09051    0.78649    0.53546   1.00
H2       0.95640    0.58239    0.60929   1.00
H2       1.09649    0.74002    0.51424   1.00
C4       0.68475    0.41169    0.41154   1.00
C4       0.64309    0.41195    0.41001   1.00
C3       0.70603    0.38425    0.43442   1.00
C3       0.61996    0.38238    0.42789   1.00
C3       0.70646    0.43976    0.38958   1.00
C3       0.62330    0.44270    0.38991   1.00
C2       0.76905    0.40990    0.41315   1.00
C2       0.55878    0.41347    0.40858   1.00
C3       0.74689    0.38320    0.43510   1.00
C3       0.57909    0.38316    0.42741   1.00
C3       0.74804    0.43756    0.39089   1.00
C3       0.58164    0.44254    0.39028   1.00
H1       0.69263    0.36424    0.45175   1.00
H1       0.63194    0.35896    0.44161   1.00
C5       0.68665    0.46913    0.36729   1.00
C5       0.64502    0.47239    0.36996   1.00
H1       0.76049    0.36259    0.45207   1.00
H1       0.56409    0.36105    0.44099   1.00
H1       0.76448    0.45685    0.37546   1.00
H1       0.56652    0.46405    0.37654   1.00
C6       0.70985    0.49597    0.34096   1.00
C6       0.62381    0.50695    0.35239   1.00
H2       0.73155    0.47887    0.32522   1.00
H2       0.60190    0.51725    0.37300   1.00
H2       0.69214    0.50727    0.31720   1.00
H2       0.64272    0.53230    0.34995   1.00
C6       0.72894    0.53105    0.36327   1.00
C6       0.60558    0.49798    0.31141   1.00
H2       0.74208    0.52058    0.39039   1.00
H2       0.59117    0.46953    0.31213   1.00
C6       0.76041    0.55560    0.34105   1.00
C6       0.57589    0.52826    0.29442   1.00
H2       0.70551    0.55068    0.37233   1.00
H2       0.62954    0.49473    0.29063   1.00
C6       0.79765    0.53130    0.33255   1.00
C6       0.53792    0.53006    0.31901   1.00
C6       0.74426    0.57221    0.30223   1.00
C6       0.59393    0.56963    0.29179   1.00
C6       0.77255    0.59055    0.36722   1.00
C6       0.56446    0.51531    0.25253   1.00
H2       0.80942    0.51863    0.35932   1.00
H2       0.52480    0.50117    0.32196   1.00
H2       0.79170    0.50755    0.31230   1.00
H2       0.54346    0.54130    0.34821   1.00
H2       0.82041    0.54936    0.31951   1.00
H2       0.51637    0.54919    0.30546   1.00
H2       0.76545    0.59152    0.28836   1.00
H2       0.57402    0.58989    0.27736   1.00
H2       0.73775    0.54883    0.28167   1.00
H2       0.60006    0.58126    0.32075   1.00
H2       0.71755    0.58877    0.30729   1.00
H2       0.62115    0.56904    0.27530   1.00
H2       0.78458    0.58039    0.39492   1.00
H2       0.55117    0.48635    0.25279   1.00
H2       0.79475    0.60847    0.35303   1.00
H2       0.54351    0.53546    0.23949   1.00
H2       0.74761    0.60929    0.37360   1.00
H2       0.58998    0.51424    0.23351   1.00
C4       1.14525    0.41169    0.41846   1.00
C4       1.18691    0.41195    0.41999   1.00
C3       1.12397    0.38425    0.39558   1.00
C3       1.21004    0.38238    0.40211   1.00
C3       1.12354    0.43976    0.44042   1.00
C3       1.20670    0.44270    0.44009   1.00
C2       1.06095    0.40990    0.41685   1.00
C2       1.27122    0.41347    0.42142   1.00
C3       1.08311    0.38320    0.39490   1.00
C3       1.25091    0.38316    0.40259   1.00
C3       1.08196    0.43756    0.43911   1.00
C3       1.24836    0.44254    0.43972   1.00
H1       1.13737    0.36424    0.37825   1.00
H1       1.19806    0.35896    0.38839   1.00
C5       1.14335    0.46913    0.46271   1.00
C5       1.18498    0.47239    0.46004   1.00
H1       1.06951    0.36259    0.37793   1.00
H1       1.26591    0.36105    0.38901   1.00
H1       1.06552    0.45685    0.45454   1.00
H1       1.26348    0.46405    0.45346   1.00
C6       1.12015    0.49597    0.48904   1.00
C6       1.20619    0.50695    0.47761   1.00
H2       1.09845    0.47887    0.50478   1.00
H2       1.22810    0.51725    0.45700   1.00
H2       1.13786    0.50727    0.51280   1.00
H2       1.18728    0.53230    0.48005   1.00
C6       1.10106    0.53105    0.46673   1.00
C6       1.22442    0.49798    0.51859   1.00
H2       1.08792    0.52058    0.43961   1.00
H2       1.23883    0.46953    0.51787   1.00
C6       1.06959    0.55560    0.48895   1.00
C6       1.25411    0.52826    0.53558   1.00
H2       1.12449    0.55068    0.45767   1.00
H2       1.20046    0.49473    0.53937   1.00
C6       1.03235    0.53130    0.49745   1.00
C6       1.29208    0.53006    0.51099   1.00
C6       1.08574    0.57221    0.52777   1.00
C6       1.23607    0.56963    0.53821   1.00
C6       1.05745    0.59055    0.46278   1.00
C6       1.26554    0.51531    0.57747   1.00
H2       1.02058    0.51863    0.47068   1.00
H2       1.30520    0.50117    0.50804   1.00
H2       1.03830    0.50755    0.51770   1.00
H2       1.28654    0.54130    0.48179   1.00
H2       1.00959    0.54936    0.51049   1.00
H2       1.31363    0.54919    0.52454   1.00
H2       1.06455    0.59152    0.54164   1.00
H2       1.25598    0.58989    0.55264   1.00
H2       1.09225    0.54883    0.54833   1.00
H2       1.22994    0.58126    0.50925   1.00
H2       1.11245    0.58877    0.52271   1.00
H2       1.20885    0.56904    0.55470   1.00
H2       1.04542    0.58039    0.43508   1.00
H2       1.27883    0.48635    0.57721   1.00
H2       1.03525    0.60847    0.47697   1.00
H2       1.28649    0.53546    0.59051   1.00
H2       1.08239    0.60929    0.45640   1.00
H2       1.24002    0.51424    0.59649   1.00
C4       0.91154    0.18475    0.41169   1.00
C4       0.91001    0.14309    0.41195   1.00
C3       0.93442    0.20603    0.38425   1.00
C3       0.92789    0.11996    0.38238   1.00
C3       0.88958    0.20646    0.43976   1.00
C3       0.88991    0.12330    0.44270   1.00
C2       0.91315    0.26905    0.40990   1.00
C2       0.90858    0.05878    0.41347   1.00
C3       0.93510    0.24689    0.38320   1.00
C3       0.92741    0.07909    0.38316   1.00
C3       0.89089    0.24804    0.43756   1.00
C3       0.89028    0.08164    0.44254   1.00
H1       0.95175    0.19263    0.36424   1.00
H1       0.94161    0.13194    0.35896   1.00
C5       0.86729    0.18665    0.46913   1.00
C5       0.86996    0.14502    0.47239   1.00
H1       0.95207    0.26049    0.36259   1.00
H1       0.94099    0.06409    0.36105   1.00
H1       0.87546    0.26448    0.45685   1.00
H1       0.87654    0.06652    0.46405   1.00
C6       0.84096    0.20985    0.49597   1.00
C6       0.85239    0.12381    0.50695   1.00
H2       0.82522    0.23155    0.47887   1.00
H2       0.87300    0.10190    0.51725   1.00
H2       0.81720    0.19214    0.50727   1.00
H2       0.84995    0.14272    0.53230   1.00
C6       0.86327    0.22894    0.53105   1.00
C6       0.81141    0.10558    0.49798   1.00
H2       0.89039    0.24208    0.52058   1.00
H2       0.81213    0.09117    0.46953   1.00
C6       0.84105    0.26041    0.55560   1.00
C6       0.79442    0.07589    0.52826   1.00
H2       0.87233    0.20551    0.55068   1.00
H2       0.79063    0.12954    0.49473   1.00
C6       0.83255    0.29765    0.53130   1.00
C6       0.81901    0.03792    0.53006   1.00
C6       0.80223    0.24426    0.57221   1.00
C6       0.79179    0.09393    0.56963   1.00
C6       0.86722    0.27255    0.59055   1.00
C6       0.75253    0.06446    0.51531   1.00
H2       0.85932    0.30942    0.51863   1.00
H2       0.82196    0.02480    0.50117   1.00
H2       0.81230    0.29170    0.50755   1.00
H2       0.84821    0.04346    0.54130   1.00
H2       0.81951    0.32041    0.54936   1.00
H2       0.80546    0.01637    0.54919   1.00
H2       0.78836    0.26545    0.59152   1.00
H2       0.77736    0.07402    0.58989   1.00
H2       0.78167    0.23775    0.54883   1.00
H2       0.82075    0.10006    0.58126   1.00
H2       0.80729    0.21755    0.58877   1.00
H2       0.77530    0.12115    0.56904   1.00
H2       0.89492    0.28458    0.58039   1.00
H2       0.75279    0.05117    0.48635   1.00
H2       0.85303    0.29475    0.60847   1.00
H2       0.73949    0.04351    0.53546   1.00
H2       0.87360    0.24761    0.60929   1.00
H2       0.73351    0.08998    0.51424   1.00
C4       0.91169    0.41154    0.18475   1.00
C4       0.91195    0.41001    0.14309   1.00
C3       0.88425    0.43442    0.20603   1.00
C3       0.88238    0.42789    0.11996   1.00
C3       0.93976    0.38958    0.20646   1.00
C3       0.94270    0.38991    0.12330   1.00
C2       0.90990    0.41315    0.26905   1.00
C2       0.91347    0.40858    0.05878   1.00
C3       0.88320    0.43510    0.24689   1.00
C3       0.88316    0.42741    0.07909   1.00
C3       0.93756    0.39089    0.24804   1.00
C3       0.94254    0.39028    0.08164   1.00
H1       0.86424    0.45175    0.19263   1.00
H1       0.85896    0.44161    0.13194   1.00
C5       0.96913    0.36729    0.18665   1.00
C5       0.97239    0.36996    0.14502   1.00
H1       0.86259    0.45207    0.26049   1.00
H1       0.86105    0.44099    0.06409   1.00
H1       0.95685    0.37546    0.26448   1.00
H1       0.96405    0.37654    0.06652   1.00
C6       0.99597    0.34096    0.20985   1.00
C6       1.00695    0.35239    0.12381   1.00
H2       0.97887    0.32522    0.23155   1.00
H2       1.01725    0.37300    0.10190   1.00
H2       1.00727    0.31720    0.19214   1.00
H2       1.03230    0.34995    0.14272   1.00
C6       1.03105    0.36327    0.22894   1.00
C6       0.99798    0.31141    0.10558   1.00
H2       1.02058    0.39039    0.24208   1.00
H2       0.96953    0.31213    0.09117   1.00
C6       1.05560    0.34105    0.26041   1.00
C6       1.02826    0.29442    0.07589   1.00
H2       1.05068    0.37233    0.20551   1.00
H2       0.99473    0.29063    0.12954   1.00
C6       1.03130    0.33255    0.29765   1.00
C6       1.03006    0.31901    0.03792   1.00
C6       1.07221    0.30223    0.24426   1.00
C6       1.06963    0.29179    0.09393   1.00
C6       1.09055    0.36722    0.27255   1.00
C6       1.01531    0.25253    0.06446   1.00
H2       1.01863    0.35932    0.30942   1.00
H2       1.00117    0.32196    0.02480   1.00
H2       1.00755    0.31230    0.29170   1.00
H2       1.04130    0.34821    0.04346   1.00
H2       1.04936    0.31951    0.32041   1.00
H2       1.04919    0.30546    0.01637   1.00
H2       1.09152    0.28836    0.26545   1.00
H2       1.08989    0.27736    0.07402   1.00
H2       1.04883    0.28167    0.23775   1.00
H2       1.08126    0.32075    0.10006   1.00
H2       1.08877    0.30729    0.21755   1.00
H2       1.06904    0.27530    0.12115   1.00
H2       1.08039    0.39492    0.28458   1.00
H2       0.98635    0.25279    0.05117   1.00
H2       1.10847    0.35303    0.29475   1.00
H2       1.03546    0.23949    0.04351   1.00
H2       1.10929    0.37360    0.24761   1.00
H2       1.01424    0.23351    0.08998   1.00
