data_IRMOF10_SG202_interpen_Ligand9cp_label_f.

_audit_creation_method             'generated by an auxiliary program of Tobunporous'

_symmetry_space_group_name_H-M     'P 1'
_symmetry_Int_Tables_number        1
_symmetry_cell_setting             triclinic

_cell_length_a                    34.2800
_cell_length_b                    34.2800
_cell_length_c                    34.2800
_cell_angle_alpha                 90.0000
_cell_angle_beta                  90.0000
_cell_angle_gamma                 90.0000

loop_
_atom_site_label
_atom_site_fract_x
_atom_site_fract_y
_atom_site_fract_z
_atom_site_occupancy
O1       0.75000    0.75000    0.75000   1.00
Zn1      0.71720    0.78280    0.78280   1.00
Zn1      0.78280    0.71720    0.78280   1.00
Zn1      0.78280    0.78280    0.71720   1.00
Zn1      0.71720    0.71720    0.71720   1.00
O2       0.72650    0.77350    0.83820   1.00
O2       0.72650    0.83820    0.77350   1.00
O2       0.66180    0.77350    0.77350   1.00
O2       0.77350    0.72650    0.83820   1.00
O2       0.83820    0.72650    0.77350   1.00
O2       0.77350    0.66180    0.77350   1.00
O2       0.77350    0.83820    0.72650   1.00
O2       0.83820    0.77350    0.72650   1.00
O2       0.77350    0.77350    0.66180   1.00
O2       0.66180    0.72650    0.72650   1.00
O2       0.72650    0.66180    0.72650   1.00
O2       0.72650    0.72650    0.66180   1.00
C1       0.75000    0.75000    0.85520   1.00
C1       0.75000    0.85520    0.75000   1.00
C1       0.64480    0.75000    0.75000   1.00
C1       0.85520    0.75000    0.75000   1.00
C1       0.75000    0.64480    0.75000   1.00
C1       0.75000    0.75000    0.64480   1.00
O1       0.25000    0.25000    0.75000   1.00
Zn1      0.21720    0.28280    0.78280   1.00
Zn1      0.28280    0.21720    0.78280   1.00
Zn1      0.28280    0.28280    0.71720   1.00
Zn1      0.21720    0.21720    0.71720   1.00
O2       0.22650    0.27350    0.83820   1.00
O2       0.22650    0.33820    0.77350   1.00
O2       0.16180    0.27350    0.77350   1.00
O2       0.27350    0.22650    0.83820   1.00
O2       0.33820    0.22650    0.77350   1.00
O2       0.27350    0.16180    0.77350   1.00
O2       0.27350    0.33820    0.72650   1.00
O2       0.33820    0.27350    0.72650   1.00
O2       0.27350    0.27350    0.66180   1.00
O2       0.16180    0.22650    0.72650   1.00
O2       0.22650    0.16180    0.72650   1.00
O2       0.22650    0.22650    0.66180   1.00
C1       0.25000    0.25000    0.85520   1.00
C1       0.25000    0.35520    0.75000   1.00
C1       0.14480    0.25000    0.75000   1.00
C1       0.35520    0.25000    0.75000   1.00
C1       0.25000    0.14480    0.75000   1.00
C1       0.25000    0.25000    0.64480   1.00
O1       0.25000    0.75000    0.25000   1.00
Zn1      0.21720    0.78280    0.28280   1.00
Zn1      0.28280    0.71720    0.28280   1.00
Zn1      0.28280    0.78280    0.21720   1.00
Zn1      0.21720    0.71720    0.21720   1.00
O2       0.22650    0.77350    0.33820   1.00
O2       0.22650    0.83820    0.27350   1.00
O2       0.16180    0.77350    0.27350   1.00
O2       0.27350    0.72650    0.33820   1.00
O2       0.33820    0.72650    0.27350   1.00
O2       0.27350    0.66180    0.27350   1.00
O2       0.27350    0.83820    0.22650   1.00
O2       0.33820    0.77350    0.22650   1.00
O2       0.27350    0.77350    0.16180   1.00
O2       0.16180    0.72650    0.22650   1.00
O2       0.22650    0.66180    0.22650   1.00
O2       0.22650    0.72650    0.16180   1.00
C1       0.25000    0.75000    0.35520   1.00
C1       0.25000    0.85520    0.25000   1.00
C1       0.14480    0.75000    0.25000   1.00
C1       0.35520    0.75000    0.25000   1.00
C1       0.25000    0.64480    0.25000   1.00
C1       0.25000    0.75000    0.14480   1.00
O1       0.75000    0.25000    0.25000   1.00
Zn1      0.71720    0.28280    0.28280   1.00
Zn1      0.78280    0.21720    0.28280   1.00
Zn1      0.78280    0.28280    0.21720   1.00
Zn1      0.71720    0.21720    0.21720   1.00
O2       0.72650    0.27350    0.33820   1.00
O2       0.72650    0.33820    0.27350   1.00
O2       0.66180    0.27350    0.27350   1.00
O2       0.77350    0.22650    0.33820   1.00
O2       0.83820    0.22650    0.27350   1.00
O2       0.77350    0.16180    0.27350   1.00
O2       0.77350    0.33820    0.22650   1.00
O2       0.83820    0.27350    0.22650   1.00
O2       0.77350    0.27350    0.16180   1.00
O2       0.66180    0.22650    0.22650   1.00
O2       0.72650    0.16180    0.22650   1.00
O2       0.72650    0.22650    0.16180   1.00
C1       0.75000    0.25000    0.35520   1.00
C1       0.75000    0.35520    0.25000   1.00
C1       0.64480    0.25000    0.25000   1.00
C1       0.85520    0.25000    0.25000   1.00
C1       0.75000    0.14480    0.25000   1.00
C1       0.75000    0.25000    0.14480   1.00
O1       0.25000    0.25000    0.25000   1.00
Zn1      0.28280    0.21720    0.21720   1.00
Zn1      0.21720    0.28280    0.21720   1.00
Zn1      0.21720    0.21720    0.28280   1.00
Zn1      0.28280    0.28280    0.28280   1.00
O2       0.27350    0.22650    0.16180   1.00
O2       0.27350    0.16180    0.22650   1.00
O2       0.33820    0.22650    0.22650   1.00
O2       0.22650    0.27350    0.16180   1.00
O2       0.16180    0.27350    0.22650   1.00
O2       0.22650    0.33820    0.22650   1.00
O2       0.22650    0.16180    0.27350   1.00
O2       0.16180    0.22650    0.27350   1.00
O2       0.22650    0.22650    0.33820   1.00
O2       0.33820    0.27350    0.27350   1.00
O2       0.27350    0.33820    0.27350   1.00
O2       0.27350    0.27350    0.33820   1.00
C1       0.25000    0.25000    0.14480   1.00
C1       0.25000    0.14480    0.25000   1.00
C1       0.35520    0.25000    0.25000   1.00
C1       0.14480    0.25000    0.25000   1.00
C1       0.25000    0.35520    0.25000   1.00
C1       0.25000    0.25000    0.35520   1.00
O1       0.75000    0.75000    0.25000   1.00
Zn1      0.78280    0.71720    0.21720   1.00
Zn1      0.71720    0.78280    0.21720   1.00
Zn1      0.71720    0.71720    0.28280   1.00
Zn1      0.78280    0.78280    0.28280   1.00
O2       0.77350    0.72650    0.16180   1.00
O2       0.77350    0.66180    0.22650   1.00
O2       0.83820    0.72650    0.22650   1.00
O2       0.72650    0.77350    0.16180   1.00
O2       0.66180    0.77350    0.22650   1.00
O2       0.72650    0.83820    0.22650   1.00
O2       0.72650    0.66180    0.27350   1.00
O2       0.66180    0.72650    0.27350   1.00
O2       0.72650    0.72650    0.33820   1.00
O2       0.83820    0.77350    0.27350   1.00
O2       0.77350    0.83820    0.27350   1.00
O2       0.77350    0.77350    0.33820   1.00
C1       0.75000    0.75000    0.14480   1.00
C1       0.75000    0.64480    0.25000   1.00
C1       0.85520    0.75000    0.25000   1.00
C1       0.64480    0.75000    0.25000   1.00
C1       0.75000    0.85520    0.25000   1.00
C1       0.75000    0.75000    0.35520   1.00
O1       0.75000    0.25000    0.75000   1.00
Zn1      0.78280    0.21720    0.71720   1.00
Zn1      0.71720    0.28280    0.71720   1.00
Zn1      0.71720    0.21720    0.78280   1.00
Zn1      0.78280    0.28280    0.78280   1.00
O2       0.77350    0.22650    0.66180   1.00
O2       0.77350    0.16180    0.72650   1.00
O2       0.83820    0.22650    0.72650   1.00
O2       0.72650    0.27350    0.66180   1.00
O2       0.66180    0.27350    0.72650   1.00
O2       0.72650    0.33820    0.72650   1.00
O2       0.72650    0.16180    0.77350   1.00
O2       0.66180    0.22650    0.77350   1.00
O2       0.72650    0.22650    0.83820   1.00
O2       0.83820    0.27350    0.77350   1.00
O2       0.77350    0.33820    0.77350   1.00
O2       0.77350    0.27350    0.83820   1.00
C1       0.75000    0.25000    0.64480   1.00
C1       0.75000    0.14480    0.75000   1.00
C1       0.85520    0.25000    0.75000   1.00
C1       0.64480    0.25000    0.75000   1.00
C1       0.75000    0.35520    0.75000   1.00
C1       0.75000    0.25000    0.85520   1.00
O1       0.25000    0.75000    0.75000   1.00
Zn1      0.28280    0.71720    0.71720   1.00
Zn1      0.21720    0.78280    0.71720   1.00
Zn1      0.21720    0.71720    0.78280   1.00
Zn1      0.28280    0.78280    0.78280   1.00
O2       0.27350    0.72650    0.66180   1.00
O2       0.27350    0.66180    0.72650   1.00
O2       0.33820    0.72650    0.72650   1.00
O2       0.22650    0.77350    0.66180   1.00
O2       0.16180    0.77350    0.72650   1.00
O2       0.22650    0.83820    0.72650   1.00
O2       0.22650    0.66180    0.77350   1.00
O2       0.16180    0.72650    0.77350   1.00
O2       0.22650    0.72650    0.83820   1.00
O2       0.33820    0.77350    0.77350   1.00
O2       0.27350    0.83820    0.77350   1.00
O2       0.27350    0.77350    0.83820   1.00
C1       0.25000    0.75000    0.64480   1.00
C1       0.25000    0.64480    0.75000   1.00
C1       0.35520    0.75000    0.75000   1.00
C1       0.14480    0.75000    0.75000   1.00
C1       0.25000    0.85520    0.75000   1.00
C1       0.25000    0.75000    0.85520   1.00
O1       0.91500    0.91500    0.91500   1.00
Zn1      0.88220    0.94780    0.94780   1.00
Zn1      0.94780    0.88220    0.94780   1.00
Zn1      0.94780    0.94780    0.88220   1.00
Zn1      0.88220    0.88220    0.88220   1.00
O2       0.89150    0.93850    1.00320   1.00
O2       0.89150    1.00320    0.93850   1.00
O2       0.82680    0.93850    0.93850   1.00
O2       0.93850    0.89150    1.00320   1.00
O2       1.00320    0.89150    0.93850   1.00
O2       0.93850    0.82680    0.93850   1.00
O2       0.93850    1.00320    0.89150   1.00
O2       1.00320    0.93850    0.89150   1.00
O2       0.93850    0.93850    0.82680   1.00
O2       0.82680    0.89150    0.89150   1.00
O2       0.89150    0.82680    0.89150   1.00
O2       0.89150    0.89150    0.82680   1.00
C1       0.91500    0.91500    1.02020   1.00
C1       0.91500    1.02020    0.91500   1.00
C1       0.80980    0.91500    0.91500   1.00
C1       1.02020    0.91500    0.91500   1.00
C1       0.91500    0.80980    0.91500   1.00
C1       0.91500    0.91500    0.80980   1.00
O1       0.41500    0.41500    0.91500   1.00
Zn1      0.38220    0.44780    0.94780   1.00
Zn1      0.44780    0.38220    0.94780   1.00
Zn1      0.44780    0.44780    0.88220   1.00
Zn1      0.38220    0.38220    0.88220   1.00
O2       0.39150    0.43850    1.00320   1.00
O2       0.39150    0.50320    0.93850   1.00
O2       0.32680    0.43850    0.93850   1.00
O2       0.43850    0.39150    1.00320   1.00
O2       0.50320    0.39150    0.93850   1.00
O2       0.43850    0.32680    0.93850   1.00
O2       0.43850    0.50320    0.89150   1.00
O2       0.50320    0.43850    0.89150   1.00
O2       0.43850    0.43850    0.82680   1.00
O2       0.32680    0.39150    0.89150   1.00
O2       0.39150    0.32680    0.89150   1.00
O2       0.39150    0.39150    0.82680   1.00
C1       0.41500    0.41500    1.02020   1.00
C1       0.41500    0.52020    0.91500   1.00
C1       0.30980    0.41500    0.91500   1.00
C1       0.52020    0.41500    0.91500   1.00
C1       0.41500    0.30980    0.91500   1.00
C1       0.41500    0.41500    0.80980   1.00
O1       0.41500    0.91500    0.41500   1.00
Zn1      0.38220    0.94780    0.44780   1.00
Zn1      0.44780    0.88220    0.44780   1.00
Zn1      0.44780    0.94780    0.38220   1.00
Zn1      0.38220    0.88220    0.38220   1.00
O2       0.39150    0.93850    0.50320   1.00
O2       0.39150    1.00320    0.43850   1.00
O2       0.32680    0.93850    0.43850   1.00
O2       0.43850    0.89150    0.50320   1.00
O2       0.50320    0.89150    0.43850   1.00
O2       0.43850    0.82680    0.43850   1.00
O2       0.43850    1.00320    0.39150   1.00
O2       0.50320    0.93850    0.39150   1.00
O2       0.43850    0.93850    0.32680   1.00
O2       0.32680    0.89150    0.39150   1.00
O2       0.39150    0.82680    0.39150   1.00
O2       0.39150    0.89150    0.32680   1.00
C1       0.41500    0.91500    0.52020   1.00
C1       0.41500    1.02020    0.41500   1.00
C1       0.30980    0.91500    0.41500   1.00
C1       0.52020    0.91500    0.41500   1.00
C1       0.41500    0.80980    0.41500   1.00
C1       0.41500    0.91500    0.30980   1.00
O1       0.91500    0.41500    0.41500   1.00
Zn1      0.88220    0.44780    0.44780   1.00
Zn1      0.94780    0.38220    0.44780   1.00
Zn1      0.94780    0.44780    0.38220   1.00
Zn1      0.88220    0.38220    0.38220   1.00
O2       0.89150    0.43850    0.50320   1.00
O2       0.89150    0.50320    0.43850   1.00
O2       0.82680    0.43850    0.43850   1.00
O2       0.93850    0.39150    0.50320   1.00
O2       1.00320    0.39150    0.43850   1.00
O2       0.93850    0.32680    0.43850   1.00
O2       0.93850    0.50320    0.39150   1.00
O2       1.00320    0.43850    0.39150   1.00
O2       0.93850    0.43850    0.32680   1.00
O2       0.82680    0.39150    0.39150   1.00
O2       0.89150    0.32680    0.39150   1.00
O2       0.89150    0.39150    0.32680   1.00
C1       0.91500    0.41500    0.52020   1.00
C1       0.91500    0.52020    0.41500   1.00
C1       0.80980    0.41500    0.41500   1.00
C1       1.02020    0.41500    0.41500   1.00
C1       0.91500    0.30980    0.41500   1.00
C1       0.91500    0.41500    0.30980   1.00
O1       0.41500    0.41500    0.41500   1.00
Zn1      0.44780    0.38220    0.38220   1.00
Zn1      0.38220    0.44780    0.38220   1.00
Zn1      0.38220    0.38220    0.44780   1.00
Zn1      0.44780    0.44780    0.44780   1.00
O2       0.43850    0.39150    0.32680   1.00
O2       0.43850    0.32680    0.39150   1.00
O2       0.50320    0.39150    0.39150   1.00
O2       0.39150    0.43850    0.32680   1.00
O2       0.32680    0.43850    0.39150   1.00
O2       0.39150    0.50320    0.39150   1.00
O2       0.39150    0.32680    0.43850   1.00
O2       0.32680    0.39150    0.43850   1.00
O2       0.39150    0.39150    0.50320   1.00
O2       0.50320    0.43850    0.43850   1.00
O2       0.43850    0.50320    0.43850   1.00
O2       0.43850    0.43850    0.50320   1.00
C1       0.41500    0.41500    0.30980   1.00
C1       0.41500    0.30980    0.41500   1.00
C1       0.52020    0.41500    0.41500   1.00
C1       0.30980    0.41500    0.41500   1.00
C1       0.41500    0.52020    0.41500   1.00
C1       0.41500    0.41500    0.52020   1.00
O1       0.91500    0.91500    0.41500   1.00
Zn1      0.94780    0.88220    0.38220   1.00
Zn1      0.88220    0.94780    0.38220   1.00
Zn1      0.88220    0.88220    0.44780   1.00
Zn1      0.94780    0.94780    0.44780   1.00
O2       0.93850    0.89150    0.32680   1.00
O2       0.93850    0.82680    0.39150   1.00
O2       1.00320    0.89150    0.39150   1.00
O2       0.89150    0.93850    0.32680   1.00
O2       0.82680    0.93850    0.39150   1.00
O2       0.89150    1.00320    0.39150   1.00
O2       0.89150    0.82680    0.43850   1.00
O2       0.82680    0.89150    0.43850   1.00
O2       0.89150    0.89150    0.50320   1.00
O2       1.00320    0.93850    0.43850   1.00
O2       0.93850    1.00320    0.43850   1.00
O2       0.93850    0.93850    0.50320   1.00
C1       0.91500    0.91500    0.30980   1.00
C1       0.91500    0.80980    0.41500   1.00
C1       1.02020    0.91500    0.41500   1.00
C1       0.80980    0.91500    0.41500   1.00
C1       0.91500    1.02020    0.41500   1.00
C1       0.91500    0.91500    0.52020   1.00
O1       0.91500    0.41500    0.91500   1.00
Zn1      0.94780    0.38220    0.88220   1.00
Zn1      0.88220    0.44780    0.88220   1.00
Zn1      0.88220    0.38220    0.94780   1.00
Zn1      0.94780    0.44780    0.94780   1.00
O2       0.93850    0.39150    0.82680   1.00
O2       0.93850    0.32680    0.89150   1.00
O2       1.00320    0.39150    0.89150   1.00
O2       0.89150    0.43850    0.82680   1.00
O2       0.82680    0.43850    0.89150   1.00
O2       0.89150    0.50320    0.89150   1.00
O2       0.89150    0.32680    0.93850   1.00
O2       0.82680    0.39150    0.93850   1.00
O2       0.89150    0.39150    1.00320   1.00
O2       1.00320    0.43850    0.93850   1.00
O2       0.93850    0.50320    0.93850   1.00
O2       0.93850    0.43850    1.00320   1.00
C1       0.91500    0.41500    0.80980   1.00
C1       0.91500    0.30980    0.91500   1.00
C1       1.02020    0.41500    0.91500   1.00
C1       0.80980    0.41500    0.91500   1.00
C1       0.91500    0.52020    0.91500   1.00
C1       0.91500    0.41500    1.02020   1.00
O1       0.41500    0.91500    0.91500   1.00
Zn1      0.44780    0.88220    0.88220   1.00
Zn1      0.38220    0.94780    0.88220   1.00
Zn1      0.38220    0.88220    0.94780   1.00
Zn1      0.44780    0.94780    0.94780   1.00
O2       0.43850    0.89150    0.82680   1.00
O2       0.43850    0.82680    0.89150   1.00
O2       0.50320    0.89150    0.89150   1.00
O2       0.39150    0.93850    0.82680   1.00
O2       0.32680    0.93850    0.89150   1.00
O2       0.39150    1.00320    0.89150   1.00
O2       0.39150    0.82680    0.93850   1.00
O2       0.32680    0.89150    0.93850   1.00
O2       0.39150    0.89150    1.00320   1.00
O2       0.50320    0.93850    0.93850   1.00
O2       0.43850    1.00320    0.93850   1.00
O2       0.43850    0.93850    1.00320   1.00
C1       0.41500    0.91500    0.80980   1.00
C1       0.41500    0.80980    0.91500   1.00
C1       0.52020    0.91500    0.91500   1.00
C1       0.30980    0.91500    0.91500   1.00
C1       0.41500    1.02020    0.91500   1.00
C1       0.41500    0.91500    1.02020   1.00
C4       0.75077    0.75007    0.97917   1.00
C4       0.74923    0.74993    1.02083   1.00
C3       0.78285    0.73427    0.95846   1.00
C3       0.76243    0.71785    1.04321   1.00
C3       0.71975    0.76523    0.95643   1.00
C3       0.73519    0.78258    1.04187   1.00
C2       0.75279    0.74877    0.89487   1.00
C2       0.74746    0.75103    1.10514   1.00
C3       0.78378    0.73371    0.91715   1.00
C3       0.76147    0.71844    1.08449   1.00
C3       0.72083    0.76457    0.91514   1.00
C3a      0.73417    0.78330    1.08328   1.00
H1       0.80758    0.72257    0.97425   1.00
H1       0.77315    0.69189    1.02875   1.00
H1       0.80887    0.72144    0.90240   1.00
H1       0.77168    0.69322    1.10056   1.00
H1       0.69644    0.77626    0.89882   1.00
C5       0.71909    0.81909    1.10380   1.00
H1       0.72504    0.80805    1.02622   1.00
H1       0.69408    0.77700    0.97059   1.00
H2       0.71941    0.81507    1.13599   1.00
H2       0.73878    0.84396    1.09705   1.00
N1       0.67924    0.82789    1.09125   1.00
C6       0.64777    0.80494    1.09644   1.00
C6       0.66722    0.86048    1.07288   1.00
C6       0.61525    0.82295    1.08102   1.00
C6       0.62762    0.85827    1.06604   1.00
H3       0.64834    0.77663    1.11049   1.00
H3       0.68601    0.88456    1.06484   1.00
H3       0.58581    0.81161    1.08076   1.00
H3       0.60975    0.88001    1.05180   1.00
C4       0.75007    0.97917    0.75077   1.00
C4       0.74993    1.02083    0.74923   1.00
C3       0.73427    0.95846    0.78285   1.00
C3       0.71785    1.04321    0.76243   1.00
C3       0.76523    0.95643    0.71975   1.00
C3       0.78258    1.04187    0.73519   1.00
C2       0.74877    0.89487    0.75279   1.00
C2       0.75103    1.10514    0.74746   1.00
C3       0.73371    0.91715    0.78378   1.00
C3       0.71844    1.08449    0.76147   1.00
C3       0.76457    0.91514    0.72083   1.00
C3a      0.78330    1.08328    0.73417   1.00
H1       0.72257    0.97425    0.80758   1.00
H1       0.69189    1.02875    0.77315   1.00
H1       0.72144    0.90240    0.80887   1.00
H1       0.69322    1.10056    0.77168   1.00
H1       0.77626    0.89882    0.69644   1.00
C5       0.81909    1.10380    0.71909   1.00
H1       0.80805    1.02622    0.72504   1.00
H1       0.77700    0.97059    0.69408   1.00
H2       0.81507    1.13599    0.71941   1.00
H2       0.84396    1.09705    0.73878   1.00
N1       0.82789    1.09125    0.67924   1.00
C6       0.80494    1.09644    0.64777   1.00
C6       0.86048    1.07288    0.66722   1.00
C6       0.82295    1.08102    0.61525   1.00
C6       0.85827    1.06604    0.62762   1.00
H3       0.77663    1.11049    0.64834   1.00
H3       0.88456    1.06484    0.68601   1.00
H3       0.81161    1.08076    0.58581   1.00
H3       0.88001    1.05180    0.60975   1.00
C4       0.52083    0.75077    0.74993   1.00
C4       0.47917    0.74923    0.75007   1.00
C3       0.54154    0.78285    0.76573   1.00
C3       0.45679    0.76243    0.78215   1.00
C3       0.54357    0.71975    0.73477   1.00
C3       0.45813    0.73519    0.71742   1.00
C2       0.60513    0.75279    0.75123   1.00
C2       0.39486    0.74746    0.74897   1.00
C3       0.58285    0.78378    0.76629   1.00
C3       0.41551    0.76147    0.78156   1.00
C3       0.58486    0.72083    0.73543   1.00
C3a      0.41672    0.73417    0.71670   1.00
H1       0.52575    0.80758    0.77743   1.00
H1       0.47125    0.77315    0.80811   1.00
H1       0.59760    0.80887    0.77856   1.00
H1       0.39944    0.77168    0.80678   1.00
H1       0.60118    0.69644    0.72374   1.00
C5       0.39620    0.71909    0.68091   1.00
H1       0.47378    0.72504    0.69195   1.00
H1       0.52941    0.69408    0.72300   1.00
H2       0.36401    0.71941    0.68493   1.00
H2       0.40295    0.73878    0.65604   1.00
N1       0.40875    0.67924    0.67211   1.00
C6       0.40356    0.64777    0.69506   1.00
C6       0.42712    0.66722    0.63952   1.00
C6       0.41898    0.61525    0.67705   1.00
C6       0.43396    0.62762    0.64173   1.00
H3       0.38951    0.64834    0.72337   1.00
H3       0.43516    0.68601    0.61544   1.00
H3       0.41924    0.58581    0.68839   1.00
H3       0.44820    0.60975    0.61999   1.00
C4       0.97917    0.75077    0.75007   1.00
C4       1.02083    0.74923    0.74993   1.00
C3       0.95846    0.78285    0.73427   1.00
C3       1.04321    0.76243    0.71785   1.00
C3       0.95643    0.71975    0.76523   1.00
C3       1.04187    0.73519    0.78258   1.00
C2       0.89487    0.75279    0.74877   1.00
C2       1.10514    0.74746    0.75103   1.00
C3       0.91715    0.78378    0.73371   1.00
C3       1.08449    0.76147    0.71844   1.00
C3       0.91514    0.72083    0.76457   1.00
C3a      1.08328    0.73417    0.78330   1.00
H1       0.97425    0.80758    0.72257   1.00
H1       1.02875    0.77315    0.69189   1.00
H1       0.90240    0.80887    0.72144   1.00
H1       1.10056    0.77168    0.69322   1.00
H1       0.89882    0.69644    0.77626   1.00
C5       1.10380    0.71909    0.81909   1.00
H1       1.02622    0.72504    0.80805   1.00
H1       0.97059    0.69408    0.77700   1.00
H2       1.13599    0.71941    0.81507   1.00
H2       1.09705    0.73878    0.84396   1.00
N1       1.09125    0.67924    0.82789   1.00
C6       1.09644    0.64777    0.80494   1.00
C6       1.07288    0.66722    0.86048   1.00
C6       1.08102    0.61525    0.82295   1.00
C6       1.06604    0.62762    0.85827   1.00
H3       1.11049    0.64834    0.77663   1.00
H3       1.06484    0.68601    0.88456   1.00
H3       1.08076    0.58581    0.81161   1.00
H3       1.05180    0.60975    0.88001   1.00
C4       0.74993    0.52083    0.75077   1.00
C4       0.75007    0.47917    0.74923   1.00
C3       0.76573    0.54154    0.78285   1.00
C3       0.78215    0.45679    0.76243   1.00
C3       0.73477    0.54357    0.71975   1.00
C3       0.71742    0.45813    0.73519   1.00
C2       0.75123    0.60513    0.75279   1.00
C2       0.74897    0.39486    0.74746   1.00
C3       0.76629    0.58285    0.78378   1.00
C3       0.78156    0.41551    0.76147   1.00
C3       0.73543    0.58486    0.72083   1.00
C3a      0.71670    0.41672    0.73417   1.00
H1       0.77743    0.52575    0.80758   1.00
H1       0.80811    0.47125    0.77315   1.00
H1       0.77856    0.59760    0.80887   1.00
H1       0.80678    0.39944    0.77168   1.00
H1       0.72374    0.60118    0.69644   1.00
C5       0.68091    0.39620    0.71909   1.00
H1       0.69195    0.47378    0.72504   1.00
H1       0.72300    0.52941    0.69408   1.00
H2       0.68493    0.36401    0.71941   1.00
H2       0.65604    0.40295    0.73878   1.00
N1       0.67211    0.40875    0.67924   1.00
C6       0.69506    0.40356    0.64777   1.00
C6       0.63952    0.42712    0.66722   1.00
C6       0.67705    0.41898    0.61525   1.00
C6       0.64173    0.43396    0.62762   1.00
H3       0.72337    0.38951    0.64834   1.00
H3       0.61544    0.43516    0.68601   1.00
H3       0.68839    0.41924    0.58581   1.00
H3       0.61999    0.44820    0.60975   1.00
C4       0.75077    0.74993    0.52083   1.00
C4       0.74923    0.75007    0.47917   1.00
C3       0.78285    0.76573    0.54154   1.00
C3       0.76243    0.78215    0.45679   1.00
C3       0.71975    0.73477    0.54357   1.00
C3       0.73519    0.71742    0.45813   1.00
C2       0.75279    0.75123    0.60513   1.00
C2       0.74746    0.74897    0.39486   1.00
C3       0.78378    0.76629    0.58285   1.00
C3       0.76147    0.78156    0.41551   1.00
C3       0.72083    0.73543    0.58486   1.00
C3a      0.73417    0.71670    0.41672   1.00
H1       0.80758    0.77743    0.52575   1.00
H1       0.77315    0.80811    0.47125   1.00
H1       0.80887    0.77856    0.59760   1.00
H1       0.77168    0.80678    0.39944   1.00
H1       0.69644    0.72374    0.60118   1.00
C5       0.71909    0.68091    0.39620   1.00
H1       0.72504    0.69195    0.47378   1.00
H1       0.69408    0.72300    0.52941   1.00
H2       0.71941    0.68493    0.36401   1.00
H2       0.73878    0.65604    0.40295   1.00
N1       0.67924    0.67211    0.40875   1.00
C6       0.64777    0.69506    0.40356   1.00
C6       0.66722    0.63952    0.42712   1.00
C6       0.61525    0.67705    0.41898   1.00
C6       0.62762    0.64173    0.43396   1.00
H3       0.64834    0.72337    0.38951   1.00
H3       0.68601    0.61544    0.43516   1.00
H3       0.58581    0.68839    0.41924   1.00
H3       0.60975    0.61999    0.44820   1.00
C4       0.25077    0.25007    0.97917   1.00
C4       0.24923    0.24993    1.02083   1.00
C3       0.28285    0.23427    0.95846   1.00
C3       0.26243    0.21785    1.04321   1.00
C3       0.21975    0.26523    0.95643   1.00
C3       0.23519    0.28258    1.04187   1.00
C2       0.25279    0.24877    0.89487   1.00
C2       0.24746    0.25103    1.10514   1.00
C3       0.28378    0.23371    0.91715   1.00
C3       0.26147    0.21844    1.08449   1.00
C3       0.22083    0.26457    0.91514   1.00
C3a      0.23417    0.28330    1.08328   1.00
H1       0.30758    0.22257    0.97425   1.00
H1       0.27315    0.19189    1.02875   1.00
H1       0.30887    0.22144    0.90240   1.00
H1       0.27168    0.19322    1.10056   1.00
H1       0.19644    0.27626    0.89882   1.00
C5       0.21909    0.31909    1.10380   1.00
H1       0.22504    0.30805    1.02622   1.00
H1       0.19408    0.27700    0.97059   1.00
H2       0.21941    0.31507    1.13599   1.00
H2       0.23878    0.34396    1.09705   1.00
N1       0.17924    0.32789    1.09125   1.00
C6       0.14777    0.30494    1.09644   1.00
C6       0.16722    0.36048    1.07288   1.00
C6       0.11525    0.32295    1.08102   1.00
C6       0.12762    0.35827    1.06604   1.00
H3       0.14834    0.27663    1.11049   1.00
H3       0.18601    0.38456    1.06484   1.00
H3       0.08581    0.31161    1.08076   1.00
H3       0.10975    0.38001    1.05180   1.00
C4       0.25007    0.47917    0.75077   1.00
C4       0.24993    0.52083    0.74923   1.00
C3       0.23427    0.45846    0.78285   1.00
C3       0.21785    0.54321    0.76243   1.00
C3       0.26523    0.45643    0.71975   1.00
C3       0.28258    0.54187    0.73519   1.00
C2       0.24877    0.39487    0.75279   1.00
C2       0.25103    0.60514    0.74746   1.00
C3       0.23371    0.41715    0.78378   1.00
C3       0.21844    0.58449    0.76147   1.00
C3       0.26457    0.41514    0.72083   1.00
C3a      0.28330    0.58328    0.73417   1.00
H1       0.22257    0.47425    0.80758   1.00
H1       0.19189    0.52875    0.77315   1.00
H1       0.22144    0.40240    0.80887   1.00
H1       0.19322    0.60056    0.77168   1.00
H1       0.27626    0.39882    0.69644   1.00
C5       0.31909    0.60380    0.71909   1.00
H1       0.30805    0.52622    0.72504   1.00
H1       0.27700    0.47059    0.69408   1.00
H2       0.31507    0.63599    0.71941   1.00
H2       0.34396    0.59705    0.73878   1.00
N1       0.32789    0.59125    0.67924   1.00
C6       0.30494    0.59644    0.64777   1.00
C6       0.36048    0.57288    0.66722   1.00
C6       0.32295    0.58102    0.61525   1.00
C6       0.35827    0.56604    0.62762   1.00
H3       0.27663    0.61049    0.64834   1.00
H3       0.38456    0.56484    0.68601   1.00
H3       0.31161    0.58076    0.58581   1.00
H3       0.38001    0.55180    0.60975   1.00
C4       0.02083    0.25077    0.74993   1.00
C4       -0.02083   0.24923    0.75007   1.00
C3       0.04154    0.28285    0.76573   1.00
C3       -0.04321   0.26243    0.78215   1.00
C3       0.04357    0.21975    0.73477   1.00
C3       -0.04187   0.23519    0.71742   1.00
C2       0.10513    0.25279    0.75123   1.00
C2       -0.10514   0.24746    0.74897   1.00
C3       0.08285    0.28378    0.76629   1.00
C3       -0.08449   0.26147    0.78156   1.00
C3       0.08486    0.22083    0.73543   1.00
C3a      -0.08328   0.23417    0.71670   1.00
H1       0.02575    0.30758    0.77743   1.00
H1       -0.02875   0.27315    0.80811   1.00
H1       0.09760    0.30887    0.77856   1.00
H1       -0.10056   0.27168    0.80678   1.00
H1       0.10118    0.19644    0.72374   1.00
C5       -0.10380   0.21909    0.68091   1.00
H1       -0.02622   0.22504    0.69195   1.00
H1       0.02941    0.19408    0.72300   1.00
H2       -0.13599   0.21941    0.68493   1.00
H2       -0.09705   0.23878    0.65604   1.00
N1       -0.09125   0.17924    0.67211   1.00
C6       -0.09644   0.14777    0.69506   1.00
C6       -0.07288   0.16722    0.63952   1.00
C6       -0.08102   0.11525    0.67705   1.00
C6       -0.06604   0.12762    0.64173   1.00
H3       -0.11049   0.14834    0.72337   1.00
H3       -0.06484   0.18601    0.61544   1.00
H3       -0.08076   0.08581    0.68839   1.00
H3       -0.05180   0.10975    0.61999   1.00
C4       0.47917    0.25077    0.75007   1.00
C4       0.52083    0.24923    0.74993   1.00
C3       0.45846    0.28285    0.73427   1.00
C3       0.54321    0.26243    0.71785   1.00
C3       0.45643    0.21975    0.76523   1.00
C3       0.54187    0.23519    0.78258   1.00
C2       0.39487    0.25279    0.74877   1.00
C2       0.60514    0.24746    0.75103   1.00
C3       0.41715    0.28378    0.73371   1.00
C3       0.58449    0.26147    0.71844   1.00
C3       0.41514    0.22083    0.76457   1.00
C3a      0.58328    0.23417    0.78330   1.00
H1       0.47425    0.30758    0.72257   1.00
H1       0.52875    0.27315    0.69189   1.00
H1       0.40240    0.30887    0.72144   1.00
H1       0.60056    0.27168    0.69322   1.00
H1       0.39882    0.19644    0.77626   1.00
C5       0.60380    0.21909    0.81909   1.00
H1       0.52622    0.22504    0.80805   1.00
H1       0.47059    0.19408    0.77700   1.00
H2       0.63599    0.21941    0.81507   1.00
H2       0.59705    0.23878    0.84396   1.00
N1       0.59125    0.17924    0.82789   1.00
C6       0.59644    0.14777    0.80494   1.00
C6       0.57288    0.16722    0.86048   1.00
C6       0.58102    0.11525    0.82295   1.00
C6       0.56604    0.12762    0.85827   1.00
H3       0.61049    0.14834    0.77663   1.00
H3       0.56484    0.18601    0.88456   1.00
H3       0.58076    0.08581    0.81161   1.00
H3       0.55180    0.10975    0.88001   1.00
C4       0.24993    0.02083    0.75077   1.00
C4       0.25007    -0.02083   0.74923   1.00
C3       0.26573    0.04154    0.78285   1.00
C3       0.28215    -0.04321   0.76243   1.00
C3       0.23477    0.04357    0.71975   1.00
C3       0.21742    -0.04187   0.73519   1.00
C2       0.25123    0.10513    0.75279   1.00
C2       0.24897    -0.10514   0.74746   1.00
C3       0.26629    0.08285    0.78378   1.00
C3       0.28156    -0.08449   0.76147   1.00
C3       0.23543    0.08486    0.72083   1.00
C3a      0.21670    -0.08328   0.73417   1.00
H1       0.27743    0.02575    0.80758   1.00
H1       0.30811    -0.02875   0.77315   1.00
H1       0.27856    0.09760    0.80887   1.00
H1       0.30678    -0.10056   0.77168   1.00
H1       0.22374    0.10118    0.69644   1.00
C5       0.18091    -0.10380   0.71909   1.00
H1       0.19195    -0.02622   0.72504   1.00
H1       0.22300    0.02941    0.69408   1.00
H2       0.18493    -0.13599   0.71941   1.00
H2       0.15604    -0.09705   0.73878   1.00
N1       0.17211    -0.09125   0.67924   1.00
C6       0.19506    -0.09644   0.64777   1.00
C6       0.13952    -0.07288   0.66722   1.00
C6       0.17705    -0.08102   0.61525   1.00
C6       0.14173    -0.06604   0.62762   1.00
H3       0.22337    -0.11049   0.64834   1.00
H3       0.11544    -0.06484   0.68601   1.00
H3       0.18839    -0.08076   0.58581   1.00
H3       0.11999    -0.05180   0.60975   1.00
C4       0.25077    0.24993    0.52083   1.00
C4       0.24923    0.25007    0.47917   1.00
C3       0.28285    0.26573    0.54154   1.00
C3       0.26243    0.28215    0.45679   1.00
C3       0.21975    0.23477    0.54357   1.00
C3       0.23519    0.21742    0.45813   1.00
C2       0.25279    0.25123    0.60513   1.00
C2       0.24746    0.24897    0.39486   1.00
C3       0.28378    0.26629    0.58285   1.00
C3       0.26147    0.28156    0.41551   1.00
C3       0.22083    0.23543    0.58486   1.00
C3a      0.23417    0.21670    0.41672   1.00
H1       0.30758    0.27743    0.52575   1.00
H1       0.27315    0.30811    0.47125   1.00
H1       0.30887    0.27856    0.59760   1.00
H1       0.27168    0.30678    0.39944   1.00
H1       0.19644    0.22374    0.60118   1.00
C5       0.21909    0.18091    0.39620   1.00
H1       0.22504    0.19195    0.47378   1.00
H1       0.19408    0.22300    0.52941   1.00
H2       0.21941    0.18493    0.36401   1.00
H2       0.23878    0.15604    0.40295   1.00
N1       0.17924    0.17211    0.40875   1.00
C6       0.14777    0.19506    0.40356   1.00
C6       0.16722    0.13952    0.42712   1.00
C6       0.11525    0.17705    0.41898   1.00
C6       0.12762    0.14173    0.43396   1.00
H3       0.14834    0.22337    0.38951   1.00
H3       0.18601    0.11544    0.43516   1.00
H3       0.08581    0.18839    0.41924   1.00
H3       0.10975    0.11999    0.44820   1.00
C4       0.25077    0.75007    0.47917   1.00
C4       0.24923    0.74993    0.52083   1.00
C3       0.28285    0.73427    0.45846   1.00
C3       0.26243    0.71785    0.54321   1.00
C3       0.21975    0.76523    0.45643   1.00
C3       0.23519    0.78258    0.54187   1.00
C2       0.25279    0.74877    0.39487   1.00
C2       0.24746    0.75103    0.60514   1.00
C3       0.28378    0.73371    0.41715   1.00
C3       0.26147    0.71844    0.58449   1.00
C3       0.22083    0.76457    0.41514   1.00
C3a      0.23417    0.78330    0.58328   1.00
H1       0.30758    0.72257    0.47425   1.00
H1       0.27315    0.69189    0.52875   1.00
H1       0.30887    0.72144    0.40240   1.00
H1       0.27168    0.69322    0.60056   1.00
H1       0.19644    0.77626    0.39882   1.00
C5       0.21909    0.81909    0.60380   1.00
H1       0.22504    0.80805    0.52622   1.00
H1       0.19408    0.77700    0.47059   1.00
H2       0.21941    0.81507    0.63599   1.00
H2       0.23878    0.84396    0.59705   1.00
N1       0.17924    0.82789    0.59125   1.00
C6       0.14777    0.80494    0.59644   1.00
C6       0.16722    0.86048    0.57288   1.00
C6       0.11525    0.82295    0.58102   1.00
C6       0.12762    0.85827    0.56604   1.00
H3       0.14834    0.77663    0.61049   1.00
H3       0.18601    0.88456    0.56484   1.00
H3       0.08581    0.81161    0.58076   1.00
H3       0.10975    0.88001    0.55180   1.00
C4       0.25007    0.97917    0.25077   1.00
C4       0.24993    1.02083    0.24923   1.00
C3       0.23427    0.95846    0.28285   1.00
C3       0.21785    1.04321    0.26243   1.00
C3       0.26523    0.95643    0.21975   1.00
C3       0.28258    1.04187    0.23519   1.00
C2       0.24877    0.89487    0.25279   1.00
C2       0.25103    1.10514    0.24746   1.00
C3       0.23371    0.91715    0.28378   1.00
C3       0.21844    1.08449    0.26147   1.00
C3       0.26457    0.91514    0.22083   1.00
C3a      0.28330    1.08328    0.23417   1.00
H1       0.22257    0.97425    0.30758   1.00
H1       0.19189    1.02875    0.27315   1.00
H1       0.22144    0.90240    0.30887   1.00
H1       0.19322    1.10056    0.27168   1.00
H1       0.27626    0.89882    0.19644   1.00
C5       0.31909    1.10380    0.21909   1.00
H1       0.30805    1.02622    0.22504   1.00
H1       0.27700    0.97059    0.19408   1.00
H2       0.31507    1.13599    0.21941   1.00
H2       0.34396    1.09705    0.23878   1.00
N1       0.32789    1.09125    0.17924   1.00
C6       0.30494    1.09644    0.14777   1.00
C6       0.36048    1.07288    0.16722   1.00
C6       0.32295    1.08102    0.11525   1.00
C6       0.35827    1.06604    0.12762   1.00
H3       0.27663    1.11049    0.14834   1.00
H3       0.38456    1.06484    0.18601   1.00
H3       0.31161    1.08076    0.08581   1.00
H3       0.38001    1.05180    0.10975   1.00
C4       0.02083    0.75077    0.24993   1.00
C4       -0.02083   0.74923    0.25007   1.00
C3       0.04154    0.78285    0.26573   1.00
C3       -0.04321   0.76243    0.28215   1.00
C3       0.04357    0.71975    0.23477   1.00
C3       -0.04187   0.73519    0.21742   1.00
C2       0.10513    0.75279    0.25123   1.00
C2       -0.10514   0.74746    0.24897   1.00
C3       0.08285    0.78378    0.26629   1.00
C3       -0.08449   0.76147    0.28156   1.00
C3       0.08486    0.72083    0.23543   1.00
C3a      -0.08328   0.73417    0.21670   1.00
H1       0.02575    0.80758    0.27743   1.00
H1       -0.02875   0.77315    0.30811   1.00
H1       0.09760    0.80887    0.27856   1.00
H1       -0.10056   0.77168    0.30678   1.00
H1       0.10118    0.69644    0.22374   1.00
C5       -0.10380   0.71909    0.18091   1.00
H1       -0.02622   0.72504    0.19195   1.00
H1       0.02941    0.69408    0.22300   1.00
H2       -0.13599   0.71941    0.18493   1.00
H2       -0.09705   0.73878    0.15604   1.00
N1       -0.09125   0.67924    0.17211   1.00
C6       -0.09644   0.64777    0.19506   1.00
C6       -0.07288   0.66722    0.13952   1.00
C6       -0.08102   0.61525    0.17705   1.00
C6       -0.06604   0.62762    0.14173   1.00
H3       -0.11049   0.64834    0.22337   1.00
H3       -0.06484   0.68601    0.11544   1.00
H3       -0.08076   0.58581    0.18839   1.00
H3       -0.05180   0.60975    0.11999   1.00
C4       0.47917    0.75077    0.25007   1.00
C4       0.52083    0.74923    0.24993   1.00
C3       0.45846    0.78285    0.23427   1.00
C3       0.54321    0.76243    0.21785   1.00
C3       0.45643    0.71975    0.26523   1.00
C3       0.54187    0.73519    0.28258   1.00
C2       0.39487    0.75279    0.24877   1.00
C2       0.60514    0.74746    0.25103   1.00
C3       0.41715    0.78378    0.23371   1.00
C3       0.58449    0.76147    0.21844   1.00
C3       0.41514    0.72083    0.26457   1.00
C3a      0.58328    0.73417    0.28330   1.00
H1       0.47425    0.80758    0.22257   1.00
H1       0.52875    0.77315    0.19189   1.00
H1       0.40240    0.80887    0.22144   1.00
H1       0.60056    0.77168    0.19322   1.00
H1       0.39882    0.69644    0.27626   1.00
C5       0.60380    0.71909    0.31909   1.00
H1       0.52622    0.72504    0.30805   1.00
H1       0.47059    0.69408    0.27700   1.00
H2       0.63599    0.71941    0.31507   1.00
H2       0.59705    0.73878    0.34396   1.00
N1       0.59125    0.67924    0.32789   1.00
C6       0.59644    0.64777    0.30494   1.00
C6       0.57288    0.66722    0.36048   1.00
C6       0.58102    0.61525    0.32295   1.00
C6       0.56604    0.62762    0.35827   1.00
H3       0.61049    0.64834    0.27663   1.00
H3       0.56484    0.68601    0.38456   1.00
H3       0.58076    0.58581    0.31161   1.00
H3       0.55180    0.60975    0.38001   1.00
C4       0.24993    0.52083    0.25077   1.00
C4       0.25007    0.47917    0.24923   1.00
C3       0.26573    0.54154    0.28285   1.00
C3       0.28215    0.45679    0.26243   1.00
C3       0.23477    0.54357    0.21975   1.00
C3       0.21742    0.45813    0.23519   1.00
C2       0.25123    0.60513    0.25279   1.00
C2       0.24897    0.39486    0.24746   1.00
C3       0.26629    0.58285    0.28378   1.00
C3       0.28156    0.41551    0.26147   1.00
C3       0.23543    0.58486    0.22083   1.00
C3a      0.21670    0.41672    0.23417   1.00
H1       0.27743    0.52575    0.30758   1.00
H1       0.30811    0.47125    0.27315   1.00
H1       0.27856    0.59760    0.30887   1.00
H1       0.30678    0.39944    0.27168   1.00
H1       0.22374    0.60118    0.19644   1.00
C5       0.18091    0.39620    0.21909   1.00
H1       0.19195    0.47378    0.22504   1.00
H1       0.22300    0.52941    0.19408   1.00
H2       0.18493    0.36401    0.21941   1.00
H2       0.15604    0.40295    0.23878   1.00
N1       0.17211    0.40875    0.17924   1.00
C6       0.19506    0.40356    0.14777   1.00
C6       0.13952    0.42712    0.16722   1.00
C6       0.17705    0.41898    0.11525   1.00
C6       0.14173    0.43396    0.12762   1.00
H3       0.22337    0.38951    0.14834   1.00
H3       0.11544    0.43516    0.18601   1.00
H3       0.18839    0.41924    0.08581   1.00
H3       0.11999    0.44820    0.10975   1.00
C4       0.25077    0.74993    0.02083   1.00
C4       0.24923    0.75007    -0.02083   1.00
C3       0.28285    0.76573    0.04154   1.00
C3       0.26243    0.78215    -0.04321   1.00
C3       0.21975    0.73477    0.04357   1.00
C3       0.23519    0.71742    -0.04187   1.00
C2       0.25279    0.75123    0.10513   1.00
C2       0.24746    0.74897    -0.10514   1.00
C3       0.28378    0.76629    0.08285   1.00
C3       0.26147    0.78156    -0.08449   1.00
C3       0.22083    0.73543    0.08486   1.00
C3a      0.23417    0.71670    -0.08328   1.00
H1       0.30758    0.77743    0.02575   1.00
H1       0.27315    0.80811    -0.02875   1.00
H1       0.30887    0.77856    0.09760   1.00
H1       0.27168    0.80678    -0.10056   1.00
H1       0.19644    0.72374    0.10118   1.00
C5       0.21909    0.68091    -0.10380   1.00
H1       0.22504    0.69195    -0.02622   1.00
H1       0.19408    0.72300    0.02941   1.00
H2       0.21941    0.68493    -0.13599   1.00
H2       0.23878    0.65604    -0.09705   1.00
N1       0.17924    0.67211    -0.09125   1.00
C6       0.14777    0.69506    -0.09644   1.00
C6       0.16722    0.63952    -0.07288   1.00
C6       0.11525    0.67705    -0.08102   1.00
C6       0.12762    0.64173    -0.06604   1.00
H3       0.14834    0.72337    -0.11049   1.00
H3       0.18601    0.61544    -0.06484   1.00
H3       0.08581    0.68839    -0.08076   1.00
H3       0.10975    0.61999    -0.05180   1.00
C4       0.75077    0.25007    0.47917   1.00
C4       0.74923    0.24993    0.52083   1.00
C3       0.78285    0.23427    0.45846   1.00
C3       0.76243    0.21785    0.54321   1.00
C3       0.71975    0.26523    0.45643   1.00
C3       0.73519    0.28258    0.54187   1.00
C2       0.75279    0.24877    0.39487   1.00
C2       0.74746    0.25103    0.60514   1.00
C3       0.78378    0.23371    0.41715   1.00
C3       0.76147    0.21844    0.58449   1.00
C3       0.72083    0.26457    0.41514   1.00
C3a      0.73417    0.28330    0.58328   1.00
H1       0.80758    0.22257    0.47425   1.00
H1       0.77315    0.19189    0.52875   1.00
H1       0.80887    0.22144    0.40240   1.00
H1       0.77168    0.19322    0.60056   1.00
H1       0.69644    0.27626    0.39882   1.00
C5       0.71909    0.31909    0.60380   1.00
H1       0.72504    0.30805    0.52622   1.00
H1       0.69408    0.27700    0.47059   1.00
H2       0.71941    0.31507    0.63599   1.00
H2       0.73878    0.34396    0.59705   1.00
N1       0.67924    0.32789    0.59125   1.00
C6       0.64777    0.30494    0.59644   1.00
C6       0.66722    0.36048    0.57288   1.00
C6       0.61525    0.32295    0.58102   1.00
C6       0.62762    0.35827    0.56604   1.00
H3       0.64834    0.27663    0.61049   1.00
H3       0.68601    0.38456    0.56484   1.00
H3       0.58581    0.31161    0.58076   1.00
H3       0.60975    0.38001    0.55180   1.00
C4       0.75007    0.47917    0.25077   1.00
C4       0.74993    0.52083    0.24923   1.00
C3       0.73427    0.45846    0.28285   1.00
C3       0.71785    0.54321    0.26243   1.00
C3       0.76523    0.45643    0.21975   1.00
C3       0.78258    0.54187    0.23519   1.00
C2       0.74877    0.39487    0.25279   1.00
C2       0.75103    0.60514    0.24746   1.00
C3       0.73371    0.41715    0.28378   1.00
C3       0.71844    0.58449    0.26147   1.00
C3       0.76457    0.41514    0.22083   1.00
C3a      0.78330    0.58328    0.23417   1.00
H1       0.72257    0.47425    0.30758   1.00
H1       0.69189    0.52875    0.27315   1.00
H1       0.72144    0.40240    0.30887   1.00
H1       0.69322    0.60056    0.27168   1.00
H1       0.77626    0.39882    0.19644   1.00
C5       0.81909    0.60380    0.21909   1.00
H1       0.80805    0.52622    0.22504   1.00
H1       0.77700    0.47059    0.19408   1.00
H2       0.81507    0.63599    0.21941   1.00
H2       0.84396    0.59705    0.23878   1.00
N1       0.82789    0.59125    0.17924   1.00
C6       0.80494    0.59644    0.14777   1.00
C6       0.86048    0.57288    0.16722   1.00
C6       0.82295    0.58102    0.11525   1.00
C6       0.85827    0.56604    0.12762   1.00
H3       0.77663    0.61049    0.14834   1.00
H3       0.88456    0.56484    0.18601   1.00
H3       0.81161    0.58076    0.08581   1.00
H3       0.88001    0.55180    0.10975   1.00
C4       0.52083    0.25077    0.24993   1.00
C4       0.47917    0.24923    0.25007   1.00
C3       0.54154    0.28285    0.26573   1.00
C3       0.45679    0.26243    0.28215   1.00
C3       0.54357    0.21975    0.23477   1.00
C3       0.45813    0.23519    0.21742   1.00
C2       0.60513    0.25279    0.25123   1.00
C2       0.39486    0.24746    0.24897   1.00
C3       0.58285    0.28378    0.26629   1.00
C3       0.41551    0.26147    0.28156   1.00
C3       0.58486    0.22083    0.23543   1.00
C3a      0.41672    0.23417    0.21670   1.00
H1       0.52575    0.30758    0.27743   1.00
H1       0.47125    0.27315    0.30811   1.00
H1       0.59760    0.30887    0.27856   1.00
H1       0.39944    0.27168    0.30678   1.00
H1       0.60118    0.19644    0.22374   1.00
C5       0.39620    0.21909    0.18091   1.00
H1       0.47378    0.22504    0.19195   1.00
H1       0.52941    0.19408    0.22300   1.00
H2       0.36401    0.21941    0.18493   1.00
H2       0.40295    0.23878    0.15604   1.00
N1       0.40875    0.17924    0.17211   1.00
C6       0.40356    0.14777    0.19506   1.00
C6       0.42712    0.16722    0.13952   1.00
C6       0.41898    0.11525    0.17705   1.00
C6       0.43396    0.12762    0.14173   1.00
H3       0.38951    0.14834    0.22337   1.00
H3       0.43516    0.18601    0.11544   1.00
H3       0.41924    0.08581    0.18839   1.00
H3       0.44820    0.10975    0.11999   1.00
C4       0.97917    0.25077    0.25007   1.00
C4       1.02083    0.24923    0.24993   1.00
C3       0.95846    0.28285    0.23427   1.00
C3       1.04321    0.26243    0.21785   1.00
C3       0.95643    0.21975    0.26523   1.00
C3       1.04187    0.23519    0.28258   1.00
C2       0.89487    0.25279    0.24877   1.00
C2       1.10514    0.24746    0.25103   1.00
C3       0.91715    0.28378    0.23371   1.00
C3       1.08449    0.26147    0.21844   1.00
C3       0.91514    0.22083    0.26457   1.00
C3a      1.08328    0.23417    0.28330   1.00
H1       0.97425    0.30758    0.22257   1.00
H1       1.02875    0.27315    0.19189   1.00
H1       0.90240    0.30887    0.22144   1.00
H1       1.10056    0.27168    0.19322   1.00
H1       0.89882    0.19644    0.27626   1.00
C5       1.10380    0.21909    0.31909   1.00
H1       1.02622    0.22504    0.30805   1.00
H1       0.97059    0.19408    0.27700   1.00
H2       1.13599    0.21941    0.31507   1.00
H2       1.09705    0.23878    0.34396   1.00
N1       1.09125    0.17924    0.32789   1.00
C6       1.09644    0.14777    0.30494   1.00
C6       1.07288    0.16722    0.36048   1.00
C6       1.08102    0.11525    0.32295   1.00
C6       1.06604    0.12762    0.35827   1.00
H3       1.11049    0.14834    0.27663   1.00
H3       1.06484    0.18601    0.38456   1.00
H3       1.08076    0.08581    0.31161   1.00
H3       1.05180    0.10975    0.38001   1.00
C4       0.74993    0.02083    0.25077   1.00
C4       0.75007    -0.02083   0.24923   1.00
C3       0.76573    0.04154    0.28285   1.00
C3       0.78215    -0.04321   0.26243   1.00
C3       0.73477    0.04357    0.21975   1.00
C3       0.71742    -0.04187   0.23519   1.00
C2       0.75123    0.10513    0.25279   1.00
C2       0.74897    -0.10514   0.24746   1.00
C3       0.76629    0.08285    0.28378   1.00
C3       0.78156    -0.08449   0.26147   1.00
C3       0.73543    0.08486    0.22083   1.00
C3a      0.71670    -0.08328   0.23417   1.00
H1       0.77743    0.02575    0.30758   1.00
H1       0.80811    -0.02875   0.27315   1.00
H1       0.77856    0.09760    0.30887   1.00
H1       0.80678    -0.10056   0.27168   1.00
H1       0.72374    0.10118    0.19644   1.00
C5       0.68091    -0.10380   0.21909   1.00
H1       0.69195    -0.02622   0.22504   1.00
H1       0.72300    0.02941    0.19408   1.00
H2       0.68493    -0.13599   0.21941   1.00
H2       0.65604    -0.09705   0.23878   1.00
N1       0.67211    -0.09125   0.17924   1.00
C6       0.69506    -0.09644   0.14777   1.00
C6       0.63952    -0.07288   0.16722   1.00
C6       0.67705    -0.08102   0.11525   1.00
C6       0.64173    -0.06604   0.12762   1.00
H3       0.72337    -0.11049   0.14834   1.00
H3       0.61544    -0.06484   0.18601   1.00
H3       0.68839    -0.08076   0.08581   1.00
H3       0.61999    -0.05180   0.10975   1.00
C4       0.75077    0.24993    0.02083   1.00
C4       0.74923    0.25007    -0.02083   1.00
C3       0.78285    0.26573    0.04154   1.00
C3       0.76243    0.28215    -0.04321   1.00
C3       0.71975    0.23477    0.04357   1.00
C3       0.73519    0.21742    -0.04187   1.00
C2       0.75279    0.25123    0.10513   1.00
C2       0.74746    0.24897    -0.10514   1.00
C3       0.78378    0.26629    0.08285   1.00
C3       0.76147    0.28156    -0.08449   1.00
C3       0.72083    0.23543    0.08486   1.00
C3a      0.73417    0.21670    -0.08328   1.00
H1       0.80758    0.27743    0.02575   1.00
H1       0.77315    0.30811    -0.02875   1.00
H1       0.80887    0.27856    0.09760   1.00
H1       0.77168    0.30678    -0.10056   1.00
H1       0.69644    0.22374    0.10118   1.00
C5       0.71909    0.18091    -0.10380   1.00
H1       0.72504    0.19195    -0.02622   1.00
H1       0.69408    0.22300    0.02941   1.00
H2       0.71941    0.18493    -0.13599   1.00
H2       0.73878    0.15604    -0.09705   1.00
N1       0.67924    0.17211    -0.09125   1.00
C6       0.64777    0.19506    -0.09644   1.00
C6       0.66722    0.13952    -0.07288   1.00
C6       0.61525    0.17705    -0.08102   1.00
C6       0.62762    0.14173    -0.06604   1.00
H3       0.64834    0.22337    -0.11049   1.00
H3       0.68601    0.11544    -0.06484   1.00
H3       0.58581    0.18839    -0.08076   1.00
H3       0.60975    0.11999    -0.05180   1.00
C4       0.91577    0.91507    1.14417   1.00
C4       0.91423    0.91493    1.18583   1.00
C3       0.94785    0.89927    1.12346   1.00
C3       0.92743    0.88285    1.20821   1.00
C3       0.88475    0.93023    1.12143   1.00
C3       0.90019    0.94758    1.20687   1.00
C2       0.91779    0.91377    1.05987   1.00
C2       0.91246    0.91603    1.27014   1.00
C3       0.94878    0.89871    1.08215   1.00
C3       0.92647    0.88344    1.24949   1.00
C3       0.88583    0.92957    1.08014   1.00
C3a      0.89917    0.94830    1.24828   1.00
H1       0.97258    0.88757    1.13925   1.00
H1       0.93815    0.85689    1.19375   1.00
H1       0.97387    0.88644    1.06740   1.00
H1       0.93668    0.85822    1.26556   1.00
H1       0.86144    0.94126    1.06382   1.00
C5       0.88409    0.98409    1.26880   1.00
H1       0.89004    0.97305    1.19122   1.00
H1       0.85908    0.94200    1.13559   1.00
H2       0.88441    0.98007    1.30099   1.00
H2       0.90378    1.00896    1.26205   1.00
N1       0.84424    0.99289    1.25625   1.00
C6       0.81277    0.96994    1.26144   1.00
C6       0.83222    1.02548    1.23788   1.00
C6       0.78025    0.98795    1.24602   1.00
C6       0.79262    1.02327    1.23104   1.00
H3       0.81334    0.94163    1.27549   1.00
H3       0.85101    1.04956    1.22984   1.00
H3       0.75081    0.97661    1.24576   1.00
H3       0.77475    1.04501    1.21680   1.00
C4       0.91507    1.14417    0.91577   1.00
C4       0.91493    1.18583    0.91423   1.00
C3       0.89927    1.12346    0.94785   1.00
C3       0.88285    1.20821    0.92743   1.00
C3       0.93023    1.12143    0.88475   1.00
C3       0.94758    1.20687    0.90019   1.00
C2       0.91377    1.05987    0.91779   1.00
C2       0.91603    1.27014    0.91246   1.00
C3       0.89871    1.08215    0.94878   1.00
C3       0.88344    1.24949    0.92647   1.00
C3       0.92957    1.08014    0.88583   1.00
C3a      0.94830    1.24828    0.89917   1.00
H1       0.88757    1.13925    0.97258   1.00
H1       0.85689    1.19375    0.93815   1.00
H1       0.88644    1.06740    0.97387   1.00
H1       0.85822    1.26556    0.93668   1.00
H1       0.94126    1.06382    0.86144   1.00
C5       0.98409    1.26880    0.88409   1.00
H1       0.97305    1.19122    0.89004   1.00
H1       0.94200    1.13559    0.85908   1.00
H2       0.98007    1.30099    0.88441   1.00
H2       1.00896    1.26205    0.90378   1.00
N1       0.99289    1.25625    0.84424   1.00
C6       0.96994    1.26144    0.81277   1.00
C6       1.02548    1.23788    0.83222   1.00
C6       0.98795    1.24602    0.78025   1.00
C6       1.02327    1.23104    0.79262   1.00
H3       0.94163    1.27549    0.81334   1.00
H3       1.04956    1.22984    0.85101   1.00
H3       0.97661    1.24576    0.75081   1.00
H3       1.04501    1.21680    0.77475   1.00
C4       0.68583    0.91577    0.91493   1.00
C4       0.64417    0.91423    0.91507   1.00
C3       0.70654    0.94785    0.93073   1.00
C3       0.62179    0.92743    0.94715   1.00
C3       0.70857    0.88475    0.89977   1.00
C3       0.62313    0.90019    0.88242   1.00
C2       0.77013    0.91779    0.91623   1.00
C2       0.55986    0.91246    0.91397   1.00
C3       0.74785    0.94878    0.93129   1.00
C3       0.58051    0.92647    0.94656   1.00
C3       0.74986    0.88583    0.90043   1.00
C3a      0.58172    0.89917    0.88170   1.00
H1       0.69075    0.97258    0.94243   1.00
H1       0.63625    0.93815    0.97311   1.00
H1       0.76260    0.97387    0.94356   1.00
H1       0.56444    0.93668    0.97178   1.00
H1       0.76618    0.86144    0.88874   1.00
C5       0.56120    0.88409    0.84591   1.00
H1       0.63878    0.89004    0.85695   1.00
H1       0.69441    0.85908    0.88800   1.00
H2       0.52901    0.88441    0.84993   1.00
H2       0.56795    0.90378    0.82104   1.00
N1       0.57375    0.84424    0.83711   1.00
C6       0.56856    0.81277    0.86006   1.00
C6       0.59212    0.83222    0.80452   1.00
C6       0.58398    0.78025    0.84205   1.00
C6       0.59896    0.79262    0.80673   1.00
H3       0.55451    0.81334    0.88837   1.00
H3       0.60016    0.85101    0.78044   1.00
H3       0.58424    0.75081    0.85339   1.00
H3       0.61320    0.77475    0.78499   1.00
C4       1.14417    0.91577    0.91507   1.00
C4       1.18583    0.91423    0.91493   1.00
C3       1.12346    0.94785    0.89927   1.00
C3       1.20821    0.92743    0.88285   1.00
C3       1.12143    0.88475    0.93023   1.00
C3       1.20687    0.90019    0.94758   1.00
C2       1.05987    0.91779    0.91377   1.00
C2       1.27014    0.91246    0.91603   1.00
C3       1.08215    0.94878    0.89871   1.00
C3       1.24949    0.92647    0.88344   1.00
C3       1.08014    0.88583    0.92957   1.00
C3a      1.24828    0.89917    0.94830   1.00
H1       1.13925    0.97258    0.88757   1.00
H1       1.19375    0.93815    0.85689   1.00
H1       1.06740    0.97387    0.88644   1.00
H1       1.26556    0.93668    0.85822   1.00
H1       1.06382    0.86144    0.94126   1.00
C5       1.26880    0.88409    0.98409   1.00
H1       1.19122    0.89004    0.97305   1.00
H1       1.13559    0.85908    0.94200   1.00
H2       1.30099    0.88441    0.98007   1.00
H2       1.26205    0.90378    1.00896   1.00
N1       1.25625    0.84424    0.99289   1.00
C6       1.26144    0.81277    0.96994   1.00
C6       1.23788    0.83222    1.02548   1.00
C6       1.24602    0.78025    0.98795   1.00
C6       1.23104    0.79262    1.02327   1.00
H3       1.27549    0.81334    0.94163   1.00
H3       1.22984    0.85101    1.04956   1.00
H3       1.24576    0.75081    0.97661   1.00
H3       1.21680    0.77475    1.04501   1.00
C4       0.91493    0.68583    0.91577   1.00
C4       0.91507    0.64417    0.91423   1.00
C3       0.93073    0.70654    0.94785   1.00
C3       0.94715    0.62179    0.92743   1.00
C3       0.89977    0.70857    0.88475   1.00
C3       0.88242    0.62313    0.90019   1.00
C2       0.91623    0.77013    0.91779   1.00
C2       0.91397    0.55986    0.91246   1.00
C3       0.93129    0.74785    0.94878   1.00
C3       0.94656    0.58051    0.92647   1.00
C3       0.90043    0.74986    0.88583   1.00
C3a      0.88170    0.58172    0.89917   1.00
H1       0.94243    0.69075    0.97258   1.00
H1       0.97311    0.63625    0.93815   1.00
H1       0.94356    0.76260    0.97387   1.00
H1       0.97178    0.56444    0.93668   1.00
H1       0.88874    0.76618    0.86144   1.00
C5       0.84591    0.56120    0.88409   1.00
H1       0.85695    0.63878    0.89004   1.00
H1       0.88800    0.69441    0.85908   1.00
H2       0.84993    0.52901    0.88441   1.00
H2       0.82104    0.56795    0.90378   1.00
N1       0.83711    0.57375    0.84424   1.00
C6       0.86006    0.56856    0.81277   1.00
C6       0.80452    0.59212    0.83222   1.00
C6       0.84205    0.58398    0.78025   1.00
C6       0.80673    0.59896    0.79262   1.00
H3       0.88837    0.55451    0.81334   1.00
H3       0.78044    0.60016    0.85101   1.00
H3       0.85339    0.58424    0.75081   1.00
H3       0.78499    0.61320    0.77475   1.00
C4       0.91577    0.91493    0.68583   1.00
C4       0.91423    0.91507    0.64417   1.00
C3       0.94785    0.93073    0.70654   1.00
C3       0.92743    0.94715    0.62179   1.00
C3       0.88475    0.89977    0.70857   1.00
C3       0.90019    0.88242    0.62313   1.00
C2       0.91779    0.91623    0.77013   1.00
C2       0.91246    0.91397    0.55986   1.00
C3       0.94878    0.93129    0.74785   1.00
C3       0.92647    0.94656    0.58051   1.00
C3       0.88583    0.90043    0.74986   1.00
C3a      0.89917    0.88170    0.58172   1.00
H1       0.97258    0.94243    0.69075   1.00
H1       0.93815    0.97311    0.63625   1.00
H1       0.97387    0.94356    0.76260   1.00
H1       0.93668    0.97178    0.56444   1.00
H1       0.86144    0.88874    0.76618   1.00
C5       0.88409    0.84591    0.56120   1.00
H1       0.89004    0.85695    0.63878   1.00
H1       0.85908    0.88800    0.69441   1.00
H2       0.88441    0.84993    0.52901   1.00
H2       0.90378    0.82104    0.56795   1.00
N1       0.84424    0.83711    0.57375   1.00
C6       0.81277    0.86006    0.56856   1.00
C6       0.83222    0.80452    0.59212   1.00
C6       0.78025    0.84205    0.58398   1.00
C6       0.79262    0.80673    0.59896   1.00
H3       0.81334    0.88837    0.55451   1.00
H3       0.85101    0.78044    0.60016   1.00
H3       0.75081    0.85339    0.58424   1.00
H3       0.77475    0.78499    0.61320   1.00
C4       0.41577    0.41507    1.14417   1.00
C4       0.41423    0.41493    1.18583   1.00
C3       0.44785    0.39927    1.12346   1.00
C3       0.42743    0.38285    1.20821   1.00
C3       0.38475    0.43023    1.12143   1.00
C3       0.40019    0.44758    1.20687   1.00
C2       0.41779    0.41377    1.05987   1.00
C2       0.41246    0.41603    1.27014   1.00
C3       0.44878    0.39871    1.08215   1.00
C3       0.42647    0.38344    1.24949   1.00
C3       0.38583    0.42957    1.08014   1.00
C3a      0.39917    0.44830    1.24828   1.00
H1       0.47258    0.38757    1.13925   1.00
H1       0.43815    0.35689    1.19375   1.00
H1       0.47387    0.38644    1.06740   1.00
H1       0.43668    0.35822    1.26556   1.00
H1       0.36144    0.44126    1.06382   1.00
C5       0.38409    0.48409    1.26880   1.00
H1       0.39004    0.47305    1.19122   1.00
H1       0.35908    0.44200    1.13559   1.00
H2       0.38441    0.48007    1.30099   1.00
H2       0.40378    0.50896    1.26205   1.00
N1       0.34424    0.49289    1.25625   1.00
C6       0.31277    0.46994    1.26144   1.00
C6       0.33222    0.52548    1.23788   1.00
C6       0.28025    0.48795    1.24602   1.00
C6       0.29262    0.52327    1.23104   1.00
H3       0.31334    0.44163    1.27549   1.00
H3       0.35101    0.54956    1.22984   1.00
H3       0.25081    0.47661    1.24576   1.00
H3       0.27475    0.54501    1.21680   1.00
C4       0.41507    0.64417    0.91577   1.00
C4       0.41493    0.68583    0.91423   1.00
C3       0.39927    0.62346    0.94785   1.00
C3       0.38285    0.70821    0.92743   1.00
C3       0.43023    0.62143    0.88475   1.00
C3       0.44758    0.70687    0.90019   1.00
C2       0.41377    0.55987    0.91779   1.00
C2       0.41603    0.77014    0.91246   1.00
C3       0.39871    0.58215    0.94878   1.00
C3       0.38344    0.74949    0.92647   1.00
C3       0.42957    0.58014    0.88583   1.00
C3a      0.44830    0.74828    0.89917   1.00
H1       0.38757    0.63925    0.97258   1.00
H1       0.35689    0.69375    0.93815   1.00
H1       0.38644    0.56740    0.97387   1.00
H1       0.35822    0.76556    0.93668   1.00
H1       0.44126    0.56382    0.86144   1.00
C5       0.48409    0.76880    0.88409   1.00
H1       0.47305    0.69122    0.89004   1.00
H1       0.44200    0.63559    0.85908   1.00
H2       0.48007    0.80099    0.88441   1.00
H2       0.50896    0.76205    0.90378   1.00
N1       0.49289    0.75625    0.84424   1.00
C6       0.46994    0.76144    0.81277   1.00
C6       0.52548    0.73788    0.83222   1.00
C6       0.48795    0.74602    0.78025   1.00
C6       0.52327    0.73104    0.79262   1.00
H3       0.44163    0.77549    0.81334   1.00
H3       0.54956    0.72984    0.85101   1.00
H3       0.47661    0.74576    0.75081   1.00
H3       0.54501    0.71680    0.77475   1.00
C4       0.18583    0.41577    0.91493   1.00
C4       0.14417    0.41423    0.91507   1.00
C3       0.20654    0.44785    0.93073   1.00
C3       0.12179    0.42743    0.94715   1.00
C3       0.20857    0.38475    0.89977   1.00
C3       0.12313    0.40019    0.88242   1.00
C2       0.27013    0.41779    0.91623   1.00
C2       0.05986    0.41246    0.91397   1.00
C3       0.24785    0.44878    0.93129   1.00
C3       0.08051    0.42647    0.94656   1.00
C3       0.24986    0.38583    0.90043   1.00
C3a      0.08172    0.39917    0.88170   1.00
H1       0.19075    0.47258    0.94243   1.00
H1       0.13625    0.43815    0.97311   1.00
H1       0.26260    0.47387    0.94356   1.00
H1       0.06444    0.43668    0.97178   1.00
H1       0.26618    0.36144    0.88874   1.00
C5       0.06120    0.38409    0.84591   1.00
H1       0.13878    0.39004    0.85695   1.00
H1       0.19441    0.35908    0.88800   1.00
H2       0.02901    0.38441    0.84993   1.00
H2       0.06795    0.40378    0.82104   1.00
N1       0.07375    0.34424    0.83711   1.00
C6       0.06856    0.31277    0.86006   1.00
C6       0.09212    0.33222    0.80452   1.00
C6       0.08398    0.28025    0.84205   1.00
C6       0.09896    0.29262    0.80673   1.00
H3       0.05451    0.31334    0.88837   1.00
H3       0.10016    0.35101    0.78044   1.00
H3       0.08424    0.25081    0.85339   1.00
H3       0.11320    0.27475    0.78499   1.00
C4       0.64417    0.41577    0.91507   1.00
C4       0.68583    0.41423    0.91493   1.00
C3       0.62346    0.44785    0.89927   1.00
C3       0.70821    0.42743    0.88285   1.00
C3       0.62143    0.38475    0.93023   1.00
C3       0.70687    0.40019    0.94758   1.00
C2       0.55987    0.41779    0.91377   1.00
C2       0.77014    0.41246    0.91603   1.00
C3       0.58215    0.44878    0.89871   1.00
C3       0.74949    0.42647    0.88344   1.00
C3       0.58014    0.38583    0.92957   1.00
C3a      0.74828    0.39917    0.94830   1.00
H1       0.63925    0.47258    0.88757   1.00
H1       0.69375    0.43815    0.85689   1.00
H1       0.56740    0.47387    0.88644   1.00
H1       0.76556    0.43668    0.85822   1.00
H1       0.56382    0.36144    0.94126   1.00
C5       0.76880    0.38409    0.98409   1.00
H1       0.69122    0.39004    0.97305   1.00
H1       0.63559    0.35908    0.94200   1.00
H2       0.80099    0.38441    0.98007   1.00
H2       0.76205    0.40378    1.00896   1.00
N1       0.75625    0.34424    0.99289   1.00
C6       0.76144    0.31277    0.96994   1.00
C6       0.73788    0.33222    1.02548   1.00
C6       0.74602    0.28025    0.98795   1.00
C6       0.73104    0.29262    1.02327   1.00
H3       0.77549    0.31334    0.94163   1.00
H3       0.72984    0.35101    1.04956   1.00
H3       0.74576    0.25081    0.97661   1.00
H3       0.71680    0.27475    1.04501   1.00
C4       0.41493    0.18583    0.91577   1.00
C4       0.41507    0.14417    0.91423   1.00
C3       0.43073    0.20654    0.94785   1.00
C3       0.44715    0.12179    0.92743   1.00
C3       0.39977    0.20857    0.88475   1.00
C3       0.38242    0.12313    0.90019   1.00
C2       0.41623    0.27013    0.91779   1.00
C2       0.41397    0.05986    0.91246   1.00
C3       0.43129    0.24785    0.94878   1.00
C3       0.44656    0.08051    0.92647   1.00
C3       0.40043    0.24986    0.88583   1.00
C3a      0.38170    0.08172    0.89917   1.00
H1       0.44243    0.19075    0.97258   1.00
H1       0.47311    0.13625    0.93815   1.00
H1       0.44356    0.26260    0.97387   1.00
H1       0.47178    0.06444    0.93668   1.00
H1       0.38874    0.26618    0.86144   1.00
C5       0.34591    0.06120    0.88409   1.00
H1       0.35695    0.13878    0.89004   1.00
H1       0.38800    0.19441    0.85908   1.00
H2       0.34993    0.02901    0.88441   1.00
H2       0.32104    0.06795    0.90378   1.00
N1       0.33711    0.07375    0.84424   1.00
C6       0.36006    0.06856    0.81277   1.00
C6       0.30452    0.09212    0.83222   1.00
C6       0.34205    0.08398    0.78025   1.00
C6       0.30673    0.09896    0.79262   1.00
H3       0.38837    0.05451    0.81334   1.00
H3       0.28044    0.10016    0.85101   1.00
H3       0.35339    0.08424    0.75081   1.00
H3       0.28499    0.11320    0.77475   1.00
C4       0.41577    0.41493    0.68583   1.00
C4       0.41423    0.41507    0.64417   1.00
C3       0.44785    0.43073    0.70654   1.00
C3       0.42743    0.44715    0.62179   1.00
C3       0.38475    0.39977    0.70857   1.00
C3       0.40019    0.38242    0.62313   1.00
C2       0.41779    0.41623    0.77013   1.00
C2       0.41246    0.41397    0.55986   1.00
C3       0.44878    0.43129    0.74785   1.00
C3       0.42647    0.44656    0.58051   1.00
C3       0.38583    0.40043    0.74986   1.00
C3a      0.39917    0.38170    0.58172   1.00
H1       0.47258    0.44243    0.69075   1.00
H1       0.43815    0.47311    0.63625   1.00
H1       0.47387    0.44356    0.76260   1.00
H1       0.43668    0.47178    0.56444   1.00
H1       0.36144    0.38874    0.76618   1.00
C5       0.38409    0.34591    0.56120   1.00
H1       0.39004    0.35695    0.63878   1.00
H1       0.35908    0.38800    0.69441   1.00
H2       0.38441    0.34993    0.52901   1.00
H2       0.40378    0.32104    0.56795   1.00
N1       0.34424    0.33711    0.57375   1.00
C6       0.31277    0.36006    0.56856   1.00
C6       0.33222    0.30452    0.59212   1.00
C6       0.28025    0.34205    0.58398   1.00
C6       0.29262    0.30673    0.59896   1.00
H3       0.31334    0.38837    0.55451   1.00
H3       0.35101    0.28044    0.60016   1.00
H3       0.25081    0.35339    0.58424   1.00
H3       0.27475    0.28499    0.61320   1.00
C4       0.41577    0.91507    0.64417   1.00
C4       0.41423    0.91493    0.68583   1.00
C3       0.44785    0.89927    0.62346   1.00
C3       0.42743    0.88285    0.70821   1.00
C3       0.38475    0.93023    0.62143   1.00
C3       0.40019    0.94758    0.70687   1.00
C2       0.41779    0.91377    0.55987   1.00
C2       0.41246    0.91603    0.77014   1.00
C3       0.44878    0.89871    0.58215   1.00
C3       0.42647    0.88344    0.74949   1.00
C3       0.38583    0.92957    0.58014   1.00
C3a      0.39917    0.94830    0.74828   1.00
H1       0.47258    0.88757    0.63925   1.00
H1       0.43815    0.85689    0.69375   1.00
H1       0.47387    0.88644    0.56740   1.00
H1       0.43668    0.85822    0.76556   1.00
H1       0.36144    0.94126    0.56382   1.00
C5       0.38409    0.98409    0.76880   1.00
H1       0.39004    0.97305    0.69122   1.00
H1       0.35908    0.94200    0.63559   1.00
H2       0.38441    0.98007    0.80099   1.00
H2       0.40378    1.00896    0.76205   1.00
N1       0.34424    0.99289    0.75625   1.00
C6       0.31277    0.96994    0.76144   1.00
C6       0.33222    1.02548    0.73788   1.00
C6       0.28025    0.98795    0.74602   1.00
C6       0.29262    1.02327    0.73104   1.00
H3       0.31334    0.94163    0.77549   1.00
H3       0.35101    1.04956    0.72984   1.00
H3       0.25081    0.97661    0.74576   1.00
H3       0.27475    1.04501    0.71680   1.00
C4       0.41507    1.14417    0.41577   1.00
C4       0.41493    1.18583    0.41423   1.00
C3       0.39927    1.12346    0.44785   1.00
C3       0.38285    1.20821    0.42743   1.00
C3       0.43023    1.12143    0.38475   1.00
C3       0.44758    1.20687    0.40019   1.00
C2       0.41377    1.05987    0.41779   1.00
C2       0.41603    1.27014    0.41246   1.00
C3       0.39871    1.08215    0.44878   1.00
C3       0.38344    1.24949    0.42647   1.00
C3       0.42957    1.08014    0.38583   1.00
C3a      0.44830    1.24828    0.39917   1.00
H1       0.38757    1.13925    0.47258   1.00
H1       0.35689    1.19375    0.43815   1.00
H1       0.38644    1.06740    0.47387   1.00
H1       0.35822    1.26556    0.43668   1.00
H1       0.44126    1.06382    0.36144   1.00
C5       0.48409    1.26880    0.38409   1.00
H1       0.47305    1.19122    0.39004   1.00
H1       0.44200    1.13559    0.35908   1.00
H2       0.48007    1.30099    0.38441   1.00
H2       0.50896    1.26205    0.40378   1.00
N1       0.49289    1.25625    0.34424   1.00
C6       0.46994    1.26144    0.31277   1.00
C6       0.52548    1.23788    0.33222   1.00
C6       0.48795    1.24602    0.28025   1.00
C6       0.52327    1.23104    0.29262   1.00
H3       0.44163    1.27549    0.31334   1.00
H3       0.54956    1.22984    0.35101   1.00
H3       0.47661    1.24576    0.25081   1.00
H3       0.54501    1.21680    0.27475   1.00
C4       0.18583    0.91577    0.41493   1.00
C4       0.14417    0.91423    0.41507   1.00
C3       0.20654    0.94785    0.43073   1.00
C3       0.12179    0.92743    0.44715   1.00
C3       0.20857    0.88475    0.39977   1.00
C3       0.12313    0.90019    0.38242   1.00
C2       0.27013    0.91779    0.41623   1.00
C2       0.05986    0.91246    0.41397   1.00
C3       0.24785    0.94878    0.43129   1.00
C3       0.08051    0.92647    0.44656   1.00
C3       0.24986    0.88583    0.40043   1.00
C3a      0.08172    0.89917    0.38170   1.00
H1       0.19075    0.97258    0.44243   1.00
H1       0.13625    0.93815    0.47311   1.00
H1       0.26260    0.97387    0.44356   1.00
H1       0.06444    0.93668    0.47178   1.00
H1       0.26618    0.86144    0.38874   1.00
C5       0.06120    0.88409    0.34591   1.00
H1       0.13878    0.89004    0.35695   1.00
H1       0.19441    0.85908    0.38800   1.00
H2       0.02901    0.88441    0.34993   1.00
H2       0.06795    0.90378    0.32104   1.00
N1       0.07375    0.84424    0.33711   1.00
C6       0.06856    0.81277    0.36006   1.00
C6       0.09212    0.83222    0.30452   1.00
C6       0.08398    0.78025    0.34205   1.00
C6       0.09896    0.79262    0.30673   1.00
H3       0.05451    0.81334    0.38837   1.00
H3       0.10016    0.85101    0.28044   1.00
H3       0.08424    0.75081    0.35339   1.00
H3       0.11320    0.77475    0.28499   1.00
C4       0.64417    0.91577    0.41507   1.00
C4       0.68583    0.91423    0.41493   1.00
C3       0.62346    0.94785    0.39927   1.00
C3       0.70821    0.92743    0.38285   1.00
C3       0.62143    0.88475    0.43023   1.00
C3       0.70687    0.90019    0.44758   1.00
C2       0.55987    0.91779    0.41377   1.00
C2       0.77014    0.91246    0.41603   1.00
C3       0.58215    0.94878    0.39871   1.00
C3       0.74949    0.92647    0.38344   1.00
C3       0.58014    0.88583    0.42957   1.00
C3a      0.74828    0.89917    0.44830   1.00
H1       0.63925    0.97258    0.38757   1.00
H1       0.69375    0.93815    0.35689   1.00
H1       0.56740    0.97387    0.38644   1.00
H1       0.76556    0.93668    0.35822   1.00
H1       0.56382    0.86144    0.44126   1.00
C5       0.76880    0.88409    0.48409   1.00
H1       0.69122    0.89004    0.47305   1.00
H1       0.63559    0.85908    0.44200   1.00
H2       0.80099    0.88441    0.48007   1.00
H2       0.76205    0.90378    0.50896   1.00
N1       0.75625    0.84424    0.49289   1.00
C6       0.76144    0.81277    0.46994   1.00
C6       0.73788    0.83222    0.52548   1.00
C6       0.74602    0.78025    0.48795   1.00
C6       0.73104    0.79262    0.52327   1.00
H3       0.77549    0.81334    0.44163   1.00
H3       0.72984    0.85101    0.54956   1.00
H3       0.74576    0.75081    0.47661   1.00
H3       0.71680    0.77475    0.54501   1.00
C4       0.41493    0.68583    0.41577   1.00
C4       0.41507    0.64417    0.41423   1.00
C3       0.43073    0.70654    0.44785   1.00
C3       0.44715    0.62179    0.42743   1.00
C3       0.39977    0.70857    0.38475   1.00
C3       0.38242    0.62313    0.40019   1.00
C2       0.41623    0.77013    0.41779   1.00
C2       0.41397    0.55986    0.41246   1.00
C3       0.43129    0.74785    0.44878   1.00
C3       0.44656    0.58051    0.42647   1.00
C3       0.40043    0.74986    0.38583   1.00
C3a      0.38170    0.58172    0.39917   1.00
H1       0.44243    0.69075    0.47258   1.00
H1       0.47311    0.63625    0.43815   1.00
H1       0.44356    0.76260    0.47387   1.00
H1       0.47178    0.56444    0.43668   1.00
H1       0.38874    0.76618    0.36144   1.00
C5       0.34591    0.56120    0.38409   1.00
H1       0.35695    0.63878    0.39004   1.00
H1       0.38800    0.69441    0.35908   1.00
H2       0.34993    0.52901    0.38441   1.00
H2       0.32104    0.56795    0.40378   1.00
N1       0.33711    0.57375    0.34424   1.00
C6       0.36006    0.56856    0.31277   1.00
C6       0.30452    0.59212    0.33222   1.00
C6       0.34205    0.58398    0.28025   1.00
C6       0.30673    0.59896    0.29262   1.00
H3       0.38837    0.55451    0.31334   1.00
H3       0.28044    0.60016    0.35101   1.00
H3       0.35339    0.58424    0.25081   1.00
H3       0.28499    0.61320    0.27475   1.00
C4       0.41577    0.91493    0.18583   1.00
C4       0.41423    0.91507    0.14417   1.00
C3       0.44785    0.93073    0.20654   1.00
C3       0.42743    0.94715    0.12179   1.00
C3       0.38475    0.89977    0.20857   1.00
C3       0.40019    0.88242    0.12313   1.00
C2       0.41779    0.91623    0.27013   1.00
C2       0.41246    0.91397    0.05986   1.00
C3       0.44878    0.93129    0.24785   1.00
C3       0.42647    0.94656    0.08051   1.00
C3       0.38583    0.90043    0.24986   1.00
C3a      0.39917    0.88170    0.08172   1.00
H1       0.47258    0.94243    0.19075   1.00
H1       0.43815    0.97311    0.13625   1.00
H1       0.47387    0.94356    0.26260   1.00
H1       0.43668    0.97178    0.06444   1.00
H1       0.36144    0.88874    0.26618   1.00
C5       0.38409    0.84591    0.06120   1.00
H1       0.39004    0.85695    0.13878   1.00
H1       0.35908    0.88800    0.19441   1.00
H2       0.38441    0.84993    0.02901   1.00
H2       0.40378    0.82104    0.06795   1.00
N1       0.34424    0.83711    0.07375   1.00
C6       0.31277    0.86006    0.06856   1.00
C6       0.33222    0.80452    0.09212   1.00
C6       0.28025    0.84205    0.08398   1.00
C6       0.29262    0.80673    0.09896   1.00
H3       0.31334    0.88837    0.05451   1.00
H3       0.35101    0.78044    0.10016   1.00
H3       0.25081    0.85339    0.08424   1.00
H3       0.27475    0.78499    0.11320   1.00
C4       0.91577    0.41507    0.64417   1.00
C4       0.91423    0.41493    0.68583   1.00
C3       0.94785    0.39927    0.62346   1.00
C3       0.92743    0.38285    0.70821   1.00
C3       0.88475    0.43023    0.62143   1.00
C3       0.90019    0.44758    0.70687   1.00
C2       0.91779    0.41377    0.55987   1.00
C2       0.91246    0.41603    0.77014   1.00
C3       0.94878    0.39871    0.58215   1.00
C3       0.92647    0.38344    0.74949   1.00
C3       0.88583    0.42957    0.58014   1.00
C3a      0.89917    0.44830    0.74828   1.00
H1       0.97258    0.38757    0.63925   1.00
H1       0.93815    0.35689    0.69375   1.00
H1       0.97387    0.38644    0.56740   1.00
H1       0.93668    0.35822    0.76556   1.00
H1       0.86144    0.44126    0.56382   1.00
C5       0.88409    0.48409    0.76880   1.00
H1       0.89004    0.47305    0.69122   1.00
H1       0.85908    0.44200    0.63559   1.00
H2       0.88441    0.48007    0.80099   1.00
H2       0.90378    0.50896    0.76205   1.00
N1       0.84424    0.49289    0.75625   1.00
C6       0.81277    0.46994    0.76144   1.00
C6       0.83222    0.52548    0.73788   1.00
C6       0.78025    0.48795    0.74602   1.00
C6       0.79262    0.52327    0.73104   1.00
H3       0.81334    0.44163    0.77549   1.00
H3       0.85101    0.54956    0.72984   1.00
H3       0.75081    0.47661    0.74576   1.00
H3       0.77475    0.54501    0.71680   1.00
C4       0.91507    0.64417    0.41577   1.00
C4       0.91493    0.68583    0.41423   1.00
C3       0.89927    0.62346    0.44785   1.00
C3       0.88285    0.70821    0.42743   1.00
C3       0.93023    0.62143    0.38475   1.00
C3       0.94758    0.70687    0.40019   1.00
C2       0.91377    0.55987    0.41779   1.00
C2       0.91603    0.77014    0.41246   1.00
C3       0.89871    0.58215    0.44878   1.00
C3       0.88344    0.74949    0.42647   1.00
C3       0.92957    0.58014    0.38583   1.00
C3a      0.94830    0.74828    0.39917   1.00
H1       0.88757    0.63925    0.47258   1.00
H1       0.85689    0.69375    0.43815   1.00
H1       0.88644    0.56740    0.47387   1.00
H1       0.85822    0.76556    0.43668   1.00
H1       0.94126    0.56382    0.36144   1.00
C5       0.98409    0.76880    0.38409   1.00
H1       0.97305    0.69122    0.39004   1.00
H1       0.94200    0.63559    0.35908   1.00
H2       0.98007    0.80099    0.38441   1.00
H2       1.00896    0.76205    0.40378   1.00
N1       0.99289    0.75625    0.34424   1.00
C6       0.96994    0.76144    0.31277   1.00
C6       1.02548    0.73788    0.33222   1.00
C6       0.98795    0.74602    0.28025   1.00
C6       1.02327    0.73104    0.29262   1.00
H3       0.94163    0.77549    0.31334   1.00
H3       1.04956    0.72984    0.35101   1.00
H3       0.97661    0.74576    0.25081   1.00
H3       1.04501    0.71680    0.27475   1.00
C4       0.68583    0.41577    0.41493   1.00
C4       0.64417    0.41423    0.41507   1.00
C3       0.70654    0.44785    0.43073   1.00
C3       0.62179    0.42743    0.44715   1.00
C3       0.70857    0.38475    0.39977   1.00
C3       0.62313    0.40019    0.38242   1.00
C2       0.77013    0.41779    0.41623   1.00
C2       0.55986    0.41246    0.41397   1.00
C3       0.74785    0.44878    0.43129   1.00
C3       0.58051    0.42647    0.44656   1.00
C3       0.74986    0.38583    0.40043   1.00
C3a      0.58172    0.39917    0.38170   1.00
H1       0.69075    0.47258    0.44243   1.00
H1       0.63625    0.43815    0.47311   1.00
H1       0.76260    0.47387    0.44356   1.00
H1       0.56444    0.43668    0.47178   1.00
H1       0.76618    0.36144    0.38874   1.00
C5       0.56120    0.38409    0.34591   1.00
H1       0.63878    0.39004    0.35695   1.00
H1       0.69441    0.35908    0.38800   1.00
H2       0.52901    0.38441    0.34993   1.00
H2       0.56795    0.40378    0.32104   1.00
N1       0.57375    0.34424    0.33711   1.00
C6       0.56856    0.31277    0.36006   1.00
C6       0.59212    0.33222    0.30452   1.00
C6       0.58398    0.28025    0.34205   1.00
C6       0.59896    0.29262    0.30673   1.00
H3       0.55451    0.31334    0.38837   1.00
H3       0.60016    0.35101    0.28044   1.00
H3       0.58424    0.25081    0.35339   1.00
H3       0.61320    0.27475    0.28499   1.00
C4       1.14417    0.41577    0.41507   1.00
C4       1.18583    0.41423    0.41493   1.00
C3       1.12346    0.44785    0.39927   1.00
C3       1.20821    0.42743    0.38285   1.00
C3       1.12143    0.38475    0.43023   1.00
C3       1.20687    0.40019    0.44758   1.00
C2       1.05987    0.41779    0.41377   1.00
C2       1.27014    0.41246    0.41603   1.00
C3       1.08215    0.44878    0.39871   1.00
C3       1.24949    0.42647    0.38344   1.00
C3       1.08014    0.38583    0.42957   1.00
C3a      1.24828    0.39917    0.44830   1.00
H1       1.13925    0.47258    0.38757   1.00
H1       1.19375    0.43815    0.35689   1.00
H1       1.06740    0.47387    0.38644   1.00
H1       1.26556    0.43668    0.35822   1.00
H1       1.06382    0.36144    0.44126   1.00
C5       1.26880    0.38409    0.48409   1.00
H1       1.19122    0.39004    0.47305   1.00
H1       1.13559    0.35908    0.44200   1.00
H2       1.30099    0.38441    0.48007   1.00
H2       1.26205    0.40378    0.50896   1.00
N1       1.25625    0.34424    0.49289   1.00
C6       1.26144    0.31277    0.46994   1.00
C6       1.23788    0.33222    0.52548   1.00
C6       1.24602    0.28025    0.48795   1.00
C6       1.23104    0.29262    0.52327   1.00
H3       1.27549    0.31334    0.44163   1.00
H3       1.22984    0.35101    0.54956   1.00
H3       1.24576    0.25081    0.47661   1.00
H3       1.21680    0.27475    0.54501   1.00
C4       0.91493    0.18583    0.41577   1.00
C4       0.91507    0.14417    0.41423   1.00
C3       0.93073    0.20654    0.44785   1.00
C3       0.94715    0.12179    0.42743   1.00
C3       0.89977    0.20857    0.38475   1.00
C3       0.88242    0.12313    0.40019   1.00
C2       0.91623    0.27013    0.41779   1.00
C2       0.91397    0.05986    0.41246   1.00
C3       0.93129    0.24785    0.44878   1.00
C3       0.94656    0.08051    0.42647   1.00
C3       0.90043    0.24986    0.38583   1.00
C3a      0.88170    0.08172    0.39917   1.00
H1       0.94243    0.19075    0.47258   1.00
H1       0.97311    0.13625    0.43815   1.00
H1       0.94356    0.26260    0.47387   1.00
H1       0.97178    0.06444    0.43668   1.00
H1       0.88874    0.26618    0.36144   1.00
C5       0.84591    0.06120    0.38409   1.00
H1       0.85695    0.13878    0.39004   1.00
H1       0.88800    0.19441    0.35908   1.00
H2       0.84993    0.02901    0.38441   1.00
H2       0.82104    0.06795    0.40378   1.00
N1       0.83711    0.07375    0.34424   1.00
C6       0.86006    0.06856    0.31277   1.00
C6       0.80452    0.09212    0.33222   1.00
C6       0.84205    0.08398    0.28025   1.00
C6       0.80673    0.09896    0.29262   1.00
H3       0.88837    0.05451    0.31334   1.00
H3       0.78044    0.10016    0.35101   1.00
H3       0.85339    0.08424    0.25081   1.00
H3       0.78499    0.11320    0.27475   1.00
C4       0.91577    0.41493    0.18583   1.00
C4       0.91423    0.41507    0.14417   1.00
C3       0.94785    0.43073    0.20654   1.00
C3       0.92743    0.44715    0.12179   1.00
C3       0.88475    0.39977    0.20857   1.00
C3       0.90019    0.38242    0.12313   1.00
C2       0.91779    0.41623    0.27013   1.00
C2       0.91246    0.41397    0.05986   1.00
C3       0.94878    0.43129    0.24785   1.00
C3       0.92647    0.44656    0.08051   1.00
C3       0.88583    0.40043    0.24986   1.00
C3a      0.89917    0.38170    0.08172   1.00
H1       0.97258    0.44243    0.19075   1.00
H1       0.93815    0.47311    0.13625   1.00
H1       0.97387    0.44356    0.26260   1.00
H1       0.93668    0.47178    0.06444   1.00
H1       0.86144    0.38874    0.26618   1.00
C5       0.88409    0.34591    0.06120   1.00
H1       0.89004    0.35695    0.13878   1.00
H1       0.85908    0.38800    0.19441   1.00
H2       0.88441    0.34993    0.02901   1.00
H2       0.90378    0.32104    0.06795   1.00
N1       0.84424    0.33711    0.07375   1.00
C6       0.81277    0.36006    0.06856   1.00
C6       0.83222    0.30452    0.09212   1.00
C6       0.78025    0.34205    0.08398   1.00
C6       0.79262    0.30673    0.09896   1.00
H3       0.81334    0.38837    0.05451   1.00
H3       0.85101    0.28044    0.10016   1.00
H3       0.75081    0.35339    0.08424   1.00
H3       0.77475    0.28499    0.11320   1.00
