data_IRMOF10_SG202_interpen_Ligand4cp_label_q.

_audit_creation_method             'generated by an auxiliary program of Tobunporous'

_symmetry_space_group_name_H-M     'P 1'
_symmetry_Int_Tables_number        1
_symmetry_cell_setting             triclinic

_cell_length_a                    34.2800
_cell_length_b                    34.2800
_cell_length_c                    34.2800
_cell_angle_alpha                 90.0000
_cell_angle_beta                  90.0000
_cell_angle_gamma                 90.0000

loop_
_atom_site_label
_atom_site_fract_x
_atom_site_fract_y
_atom_site_fract_z
_atom_site_occupancy
O1       0.75000    0.75000    0.75000   1.00
Zn1      0.71720    0.78280    0.78280   1.00
Zn1      0.78280    0.71720    0.78280   1.00
Zn1      0.78280    0.78280    0.71720   1.00
Zn1      0.71720    0.71720    0.71720   1.00
O2       0.72650    0.77350    0.83820   1.00
O2       0.72650    0.83820    0.77350   1.00
O2       0.66180    0.77350    0.77350   1.00
O2       0.77350    0.72650    0.83820   1.00
O2       0.83820    0.72650    0.77350   1.00
O2       0.77350    0.66180    0.77350   1.00
O2       0.77350    0.83820    0.72650   1.00
O2       0.83820    0.77350    0.72650   1.00
O2       0.77350    0.77350    0.66180   1.00
O2       0.66180    0.72650    0.72650   1.00
O2       0.72650    0.66180    0.72650   1.00
O2       0.72650    0.72650    0.66180   1.00
C1       0.75000    0.75000    0.85520   1.00
C1       0.75000    0.85520    0.75000   1.00
C1       0.64480    0.75000    0.75000   1.00
C1       0.85520    0.75000    0.75000   1.00
C1       0.75000    0.64480    0.75000   1.00
C1       0.75000    0.75000    0.64480   1.00
O1       0.25000    0.25000    0.75000   1.00
Zn1      0.21720    0.28280    0.78280   1.00
Zn1      0.28280    0.21720    0.78280   1.00
Zn1      0.28280    0.28280    0.71720   1.00
Zn1      0.21720    0.21720    0.71720   1.00
O2       0.22650    0.27350    0.83820   1.00
O2       0.22650    0.33820    0.77350   1.00
O2       0.16180    0.27350    0.77350   1.00
O2       0.27350    0.22650    0.83820   1.00
O2       0.33820    0.22650    0.77350   1.00
O2       0.27350    0.16180    0.77350   1.00
O2       0.27350    0.33820    0.72650   1.00
O2       0.33820    0.27350    0.72650   1.00
O2       0.27350    0.27350    0.66180   1.00
O2       0.16180    0.22650    0.72650   1.00
O2       0.22650    0.16180    0.72650   1.00
O2       0.22650    0.22650    0.66180   1.00
C1       0.25000    0.25000    0.85520   1.00
C1       0.25000    0.35520    0.75000   1.00
C1       0.14480    0.25000    0.75000   1.00
C1       0.35520    0.25000    0.75000   1.00
C1       0.25000    0.14480    0.75000   1.00
C1       0.25000    0.25000    0.64480   1.00
O1       0.25000    0.75000    0.25000   1.00
Zn1      0.21720    0.78280    0.28280   1.00
Zn1      0.28280    0.71720    0.28280   1.00
Zn1      0.28280    0.78280    0.21720   1.00
Zn1      0.21720    0.71720    0.21720   1.00
O2       0.22650    0.77350    0.33820   1.00
O2       0.22650    0.83820    0.27350   1.00
O2       0.16180    0.77350    0.27350   1.00
O2       0.27350    0.72650    0.33820   1.00
O2       0.33820    0.72650    0.27350   1.00
O2       0.27350    0.66180    0.27350   1.00
O2       0.27350    0.83820    0.22650   1.00
O2       0.33820    0.77350    0.22650   1.00
O2       0.27350    0.77350    0.16180   1.00
O2       0.16180    0.72650    0.22650   1.00
O2       0.22650    0.66180    0.22650   1.00
O2       0.22650    0.72650    0.16180   1.00
C1       0.25000    0.75000    0.35520   1.00
C1       0.25000    0.85520    0.25000   1.00
C1       0.14480    0.75000    0.25000   1.00
C1       0.35520    0.75000    0.25000   1.00
C1       0.25000    0.64480    0.25000   1.00
C1       0.25000    0.75000    0.14480   1.00
O1       0.75000    0.25000    0.25000   1.00
Zn1      0.71720    0.28280    0.28280   1.00
Zn1      0.78280    0.21720    0.28280   1.00
Zn1      0.78280    0.28280    0.21720   1.00
Zn1      0.71720    0.21720    0.21720   1.00
O2       0.72650    0.27350    0.33820   1.00
O2       0.72650    0.33820    0.27350   1.00
O2       0.66180    0.27350    0.27350   1.00
O2       0.77350    0.22650    0.33820   1.00
O2       0.83820    0.22650    0.27350   1.00
O2       0.77350    0.16180    0.27350   1.00
O2       0.77350    0.33820    0.22650   1.00
O2       0.83820    0.27350    0.22650   1.00
O2       0.77350    0.27350    0.16180   1.00
O2       0.66180    0.22650    0.22650   1.00
O2       0.72650    0.16180    0.22650   1.00
O2       0.72650    0.22650    0.16180   1.00
C1       0.75000    0.25000    0.35520   1.00
C1       0.75000    0.35520    0.25000   1.00
C1       0.64480    0.25000    0.25000   1.00
C1       0.85520    0.25000    0.25000   1.00
C1       0.75000    0.14480    0.25000   1.00
C1       0.75000    0.25000    0.14480   1.00
O1       0.25000    0.25000    0.25000   1.00
Zn1      0.28280    0.21720    0.21720   1.00
Zn1      0.21720    0.28280    0.21720   1.00
Zn1      0.21720    0.21720    0.28280   1.00
Zn1      0.28280    0.28280    0.28280   1.00
O2       0.27350    0.22650    0.16180   1.00
O2       0.27350    0.16180    0.22650   1.00
O2       0.33820    0.22650    0.22650   1.00
O2       0.22650    0.27350    0.16180   1.00
O2       0.16180    0.27350    0.22650   1.00
O2       0.22650    0.33820    0.22650   1.00
O2       0.22650    0.16180    0.27350   1.00
O2       0.16180    0.22650    0.27350   1.00
O2       0.22650    0.22650    0.33820   1.00
O2       0.33820    0.27350    0.27350   1.00
O2       0.27350    0.33820    0.27350   1.00
O2       0.27350    0.27350    0.33820   1.00
C1       0.25000    0.25000    0.14480   1.00
C1       0.25000    0.14480    0.25000   1.00
C1       0.35520    0.25000    0.25000   1.00
C1       0.14480    0.25000    0.25000   1.00
C1       0.25000    0.35520    0.25000   1.00
C1       0.25000    0.25000    0.35520   1.00
O1       0.75000    0.75000    0.25000   1.00
Zn1      0.78280    0.71720    0.21720   1.00
Zn1      0.71720    0.78280    0.21720   1.00
Zn1      0.71720    0.71720    0.28280   1.00
Zn1      0.78280    0.78280    0.28280   1.00
O2       0.77350    0.72650    0.16180   1.00
O2       0.77350    0.66180    0.22650   1.00
O2       0.83820    0.72650    0.22650   1.00
O2       0.72650    0.77350    0.16180   1.00
O2       0.66180    0.77350    0.22650   1.00
O2       0.72650    0.83820    0.22650   1.00
O2       0.72650    0.66180    0.27350   1.00
O2       0.66180    0.72650    0.27350   1.00
O2       0.72650    0.72650    0.33820   1.00
O2       0.83820    0.77350    0.27350   1.00
O2       0.77350    0.83820    0.27350   1.00
O2       0.77350    0.77350    0.33820   1.00
C1       0.75000    0.75000    0.14480   1.00
C1       0.75000    0.64480    0.25000   1.00
C1       0.85520    0.75000    0.25000   1.00
C1       0.64480    0.75000    0.25000   1.00
C1       0.75000    0.85520    0.25000   1.00
C1       0.75000    0.75000    0.35520   1.00
O1       0.75000    0.25000    0.75000   1.00
Zn1      0.78280    0.21720    0.71720   1.00
Zn1      0.71720    0.28280    0.71720   1.00
Zn1      0.71720    0.21720    0.78280   1.00
Zn1      0.78280    0.28280    0.78280   1.00
O2       0.77350    0.22650    0.66180   1.00
O2       0.77350    0.16180    0.72650   1.00
O2       0.83820    0.22650    0.72650   1.00
O2       0.72650    0.27350    0.66180   1.00
O2       0.66180    0.27350    0.72650   1.00
O2       0.72650    0.33820    0.72650   1.00
O2       0.72650    0.16180    0.77350   1.00
O2       0.66180    0.22650    0.77350   1.00
O2       0.72650    0.22650    0.83820   1.00
O2       0.83820    0.27350    0.77350   1.00
O2       0.77350    0.33820    0.77350   1.00
O2       0.77350    0.27350    0.83820   1.00
C1       0.75000    0.25000    0.64480   1.00
C1       0.75000    0.14480    0.75000   1.00
C1       0.85520    0.25000    0.75000   1.00
C1       0.64480    0.25000    0.75000   1.00
C1       0.75000    0.35520    0.75000   1.00
C1       0.75000    0.25000    0.85520   1.00
O1       0.25000    0.75000    0.75000   1.00
Zn1      0.28280    0.71720    0.71720   1.00
Zn1      0.21720    0.78280    0.71720   1.00
Zn1      0.21720    0.71720    0.78280   1.00
Zn1      0.28280    0.78280    0.78280   1.00
O2       0.27350    0.72650    0.66180   1.00
O2       0.27350    0.66180    0.72650   1.00
O2       0.33820    0.72650    0.72650   1.00
O2       0.22650    0.77350    0.66180   1.00
O2       0.16180    0.77350    0.72650   1.00
O2       0.22650    0.83820    0.72650   1.00
O2       0.22650    0.66180    0.77350   1.00
O2       0.16180    0.72650    0.77350   1.00
O2       0.22650    0.72650    0.83820   1.00
O2       0.33820    0.77350    0.77350   1.00
O2       0.27350    0.83820    0.77350   1.00
O2       0.27350    0.77350    0.83820   1.00
C1       0.25000    0.75000    0.64480   1.00
C1       0.25000    0.64480    0.75000   1.00
C1       0.35520    0.75000    0.75000   1.00
C1       0.14480    0.75000    0.75000   1.00
C1       0.25000    0.85520    0.75000   1.00
C1       0.25000    0.75000    0.85520   1.00
O1       0.91500    0.91500    0.91500   1.00
Zn1      0.88220    0.94780    0.94780   1.00
Zn1      0.94780    0.88220    0.94780   1.00
Zn1      0.94780    0.94780    0.88220   1.00
Zn1      0.88220    0.88220    0.88220   1.00
O2       0.89150    0.93850    1.00320   1.00
O2       0.89150    1.00320    0.93850   1.00
O2       0.82680    0.93850    0.93850   1.00
O2       0.93850    0.89150    1.00320   1.00
O2       1.00320    0.89150    0.93850   1.00
O2       0.93850    0.82680    0.93850   1.00
O2       0.93850    1.00320    0.89150   1.00
O2       1.00320    0.93850    0.89150   1.00
O2       0.93850    0.93850    0.82680   1.00
O2       0.82680    0.89150    0.89150   1.00
O2       0.89150    0.82680    0.89150   1.00
O2       0.89150    0.89150    0.82680   1.00
C1       0.91500    0.91500    1.02020   1.00
C1       0.91500    1.02020    0.91500   1.00
C1       0.80980    0.91500    0.91500   1.00
C1       1.02020    0.91500    0.91500   1.00
C1       0.91500    0.80980    0.91500   1.00
C1       0.91500    0.91500    0.80980   1.00
O1       0.41500    0.41500    0.91500   1.00
Zn1      0.38220    0.44780    0.94780   1.00
Zn1      0.44780    0.38220    0.94780   1.00
Zn1      0.44780    0.44780    0.88220   1.00
Zn1      0.38220    0.38220    0.88220   1.00
O2       0.39150    0.43850    1.00320   1.00
O2       0.39150    0.50320    0.93850   1.00
O2       0.32680    0.43850    0.93850   1.00
O2       0.43850    0.39150    1.00320   1.00
O2       0.50320    0.39150    0.93850   1.00
O2       0.43850    0.32680    0.93850   1.00
O2       0.43850    0.50320    0.89150   1.00
O2       0.50320    0.43850    0.89150   1.00
O2       0.43850    0.43850    0.82680   1.00
O2       0.32680    0.39150    0.89150   1.00
O2       0.39150    0.32680    0.89150   1.00
O2       0.39150    0.39150    0.82680   1.00
C1       0.41500    0.41500    1.02020   1.00
C1       0.41500    0.52020    0.91500   1.00
C1       0.30980    0.41500    0.91500   1.00
C1       0.52020    0.41500    0.91500   1.00
C1       0.41500    0.30980    0.91500   1.00
C1       0.41500    0.41500    0.80980   1.00
O1       0.41500    0.91500    0.41500   1.00
Zn1      0.38220    0.94780    0.44780   1.00
Zn1      0.44780    0.88220    0.44780   1.00
Zn1      0.44780    0.94780    0.38220   1.00
Zn1      0.38220    0.88220    0.38220   1.00
O2       0.39150    0.93850    0.50320   1.00
O2       0.39150    1.00320    0.43850   1.00
O2       0.32680    0.93850    0.43850   1.00
O2       0.43850    0.89150    0.50320   1.00
O2       0.50320    0.89150    0.43850   1.00
O2       0.43850    0.82680    0.43850   1.00
O2       0.43850    1.00320    0.39150   1.00
O2       0.50320    0.93850    0.39150   1.00
O2       0.43850    0.93850    0.32680   1.00
O2       0.32680    0.89150    0.39150   1.00
O2       0.39150    0.82680    0.39150   1.00
O2       0.39150    0.89150    0.32680   1.00
C1       0.41500    0.91500    0.52020   1.00
C1       0.41500    1.02020    0.41500   1.00
C1       0.30980    0.91500    0.41500   1.00
C1       0.52020    0.91500    0.41500   1.00
C1       0.41500    0.80980    0.41500   1.00
C1       0.41500    0.91500    0.30980   1.00
O1       0.91500    0.41500    0.41500   1.00
Zn1      0.88220    0.44780    0.44780   1.00
Zn1      0.94780    0.38220    0.44780   1.00
Zn1      0.94780    0.44780    0.38220   1.00
Zn1      0.88220    0.38220    0.38220   1.00
O2       0.89150    0.43850    0.50320   1.00
O2       0.89150    0.50320    0.43850   1.00
O2       0.82680    0.43850    0.43850   1.00
O2       0.93850    0.39150    0.50320   1.00
O2       1.00320    0.39150    0.43850   1.00
O2       0.93850    0.32680    0.43850   1.00
O2       0.93850    0.50320    0.39150   1.00
O2       1.00320    0.43850    0.39150   1.00
O2       0.93850    0.43850    0.32680   1.00
O2       0.82680    0.39150    0.39150   1.00
O2       0.89150    0.32680    0.39150   1.00
O2       0.89150    0.39150    0.32680   1.00
C1       0.91500    0.41500    0.52020   1.00
C1       0.91500    0.52020    0.41500   1.00
C1       0.80980    0.41500    0.41500   1.00
C1       1.02020    0.41500    0.41500   1.00
C1       0.91500    0.30980    0.41500   1.00
C1       0.91500    0.41500    0.30980   1.00
O1       0.41500    0.41500    0.41500   1.00
Zn1      0.44780    0.38220    0.38220   1.00
Zn1      0.38220    0.44780    0.38220   1.00
Zn1      0.38220    0.38220    0.44780   1.00
Zn1      0.44780    0.44780    0.44780   1.00
O2       0.43850    0.39150    0.32680   1.00
O2       0.43850    0.32680    0.39150   1.00
O2       0.50320    0.39150    0.39150   1.00
O2       0.39150    0.43850    0.32680   1.00
O2       0.32680    0.43850    0.39150   1.00
O2       0.39150    0.50320    0.39150   1.00
O2       0.39150    0.32680    0.43850   1.00
O2       0.32680    0.39150    0.43850   1.00
O2       0.39150    0.39150    0.50320   1.00
O2       0.50320    0.43850    0.43850   1.00
O2       0.43850    0.50320    0.43850   1.00
O2       0.43850    0.43850    0.50320   1.00
C1       0.41500    0.41500    0.30980   1.00
C1       0.41500    0.30980    0.41500   1.00
C1       0.52020    0.41500    0.41500   1.00
C1       0.30980    0.41500    0.41500   1.00
C1       0.41500    0.52020    0.41500   1.00
C1       0.41500    0.41500    0.52020   1.00
O1       0.91500    0.91500    0.41500   1.00
Zn1      0.94780    0.88220    0.38220   1.00
Zn1      0.88220    0.94780    0.38220   1.00
Zn1      0.88220    0.88220    0.44780   1.00
Zn1      0.94780    0.94780    0.44780   1.00
O2       0.93850    0.89150    0.32680   1.00
O2       0.93850    0.82680    0.39150   1.00
O2       1.00320    0.89150    0.39150   1.00
O2       0.89150    0.93850    0.32680   1.00
O2       0.82680    0.93850    0.39150   1.00
O2       0.89150    1.00320    0.39150   1.00
O2       0.89150    0.82680    0.43850   1.00
O2       0.82680    0.89150    0.43850   1.00
O2       0.89150    0.89150    0.50320   1.00
O2       1.00320    0.93850    0.43850   1.00
O2       0.93850    1.00320    0.43850   1.00
O2       0.93850    0.93850    0.50320   1.00
C1       0.91500    0.91500    0.30980   1.00
C1       0.91500    0.80980    0.41500   1.00
C1       1.02020    0.91500    0.41500   1.00
C1       0.80980    0.91500    0.41500   1.00
C1       0.91500    1.02020    0.41500   1.00
C1       0.91500    0.91500    0.52020   1.00
O1       0.91500    0.41500    0.91500   1.00
Zn1      0.94780    0.38220    0.88220   1.00
Zn1      0.88220    0.44780    0.88220   1.00
Zn1      0.88220    0.38220    0.94780   1.00
Zn1      0.94780    0.44780    0.94780   1.00
O2       0.93850    0.39150    0.82680   1.00
O2       0.93850    0.32680    0.89150   1.00
O2       1.00320    0.39150    0.89150   1.00
O2       0.89150    0.43850    0.82680   1.00
O2       0.82680    0.43850    0.89150   1.00
O2       0.89150    0.50320    0.89150   1.00
O2       0.89150    0.32680    0.93850   1.00
O2       0.82680    0.39150    0.93850   1.00
O2       0.89150    0.39150    1.00320   1.00
O2       1.00320    0.43850    0.93850   1.00
O2       0.93850    0.50320    0.93850   1.00
O2       0.93850    0.43850    1.00320   1.00
C1       0.91500    0.41500    0.80980   1.00
C1       0.91500    0.30980    0.91500   1.00
C1       1.02020    0.41500    0.91500   1.00
C1       0.80980    0.41500    0.91500   1.00
C1       0.91500    0.52020    0.91500   1.00
C1       0.91500    0.41500    1.02020   1.00
O1       0.41500    0.91500    0.91500   1.00
Zn1      0.44780    0.88220    0.88220   1.00
Zn1      0.38220    0.94780    0.88220   1.00
Zn1      0.38220    0.88220    0.94780   1.00
Zn1      0.44780    0.94780    0.94780   1.00
O2       0.43850    0.89150    0.82680   1.00
O2       0.43850    0.82680    0.89150   1.00
O2       0.50320    0.89150    0.89150   1.00
O2       0.39150    0.93850    0.82680   1.00
O2       0.32680    0.93850    0.89150   1.00
O2       0.39150    1.00320    0.89150   1.00
O2       0.39150    0.82680    0.93850   1.00
O2       0.32680    0.89150    0.93850   1.00
O2       0.39150    0.89150    1.00320   1.00
O2       0.50320    0.93850    0.93850   1.00
O2       0.43850    1.00320    0.93850   1.00
O2       0.43850    0.93850    1.00320   1.00
C1       0.41500    0.91500    0.80980   1.00
C1       0.41500    0.80980    0.91500   1.00
C1       0.52020    0.91500    0.91500   1.00
C1       0.30980    0.91500    0.91500   1.00
C1       0.41500    1.02020    0.91500   1.00
C1       0.41500    0.91500    1.02020   1.00
C4       0.75010    0.75479    0.98025   1.00
C4       0.75137    0.75568    1.02191   1.00
C3       0.71453    0.75801    0.95897   1.00
C3       0.71782    0.76395    1.04504   1.00
C3       0.78548    0.75047    0.95854   1.00
C3       0.78733    0.74816    1.04170   1.00
C2       0.74770    0.75491    0.89595   1.00
C2       0.75346    0.75562    1.10622   1.00
C3       0.71330    0.75828    0.91811   1.00
C3       0.71871    0.76374    1.08591   1.00
C3       0.78300    0.75109    0.91696   1.00
C3       0.78695    0.74801    1.08336   1.00
H1       0.68812    0.75990    0.97237   1.00
H1       0.69156    0.77081    1.03306   1.00
C5       0.82201    0.74546    0.97835   1.00
C5       0.82243    0.74127    1.01998   1.00
H1       0.68672    0.76085    0.90451   1.00
H1       0.69347    0.76978    1.10091   1.00
H1       0.80755    0.74837    0.90052   1.00
H1       0.81188    0.74251    1.09848   1.00
C6       0.85961    0.74510    0.95515   1.00
C6       0.85929    0.72925    1.04119   1.00
H2       0.85865    0.76833    0.93345   1.00
H2       0.85200    0.70740    1.06310   1.00
H2       0.88440    0.75391    0.97286   1.00
H2       0.87894    0.71306    1.02228   1.00
C6       0.86864    0.70452    0.93606   1.00
C6       0.88192    0.76458    1.05942   1.00
H2       0.84206    0.69275    0.92292   1.00
H2       0.86130    0.78419    1.07383   1.00
C6       0.90171    0.70287    0.90459   1.00
C6       0.91535    0.75517    1.08911   1.00
H2       0.87611    0.68423    0.95949   1.00
H2       0.89432    0.78156    1.03546   1.00
C6       0.89054    0.72607    0.86735   1.00
C6       0.89924    0.73651    1.12708   1.00
C6       0.94090    0.71858    0.92074   1.00
C6       0.94646    0.72778    1.07107   1.00
C6       0.90792    0.65966    0.89245   1.00
C6       0.93581    0.79396    1.10054   1.00
H2       0.86265    0.71609    0.85558   1.00
H2       0.87672    0.75486    1.14020   1.00
H2       0.88806    0.75718    0.87330   1.00
H2       0.88653    0.70792    1.12154   1.00
H2       0.91253    0.72252    0.84459   1.00
H2       0.92235    0.73257    1.14863   1.00
H2       0.96437    0.71473    0.89955   1.00
H2       0.97099    0.72366    1.09098   1.00
H2       0.93891    0.74965    0.92725   1.00
H2       0.93420    0.69908    1.06494   1.00
H2       0.94904    0.70328    0.94745   1.00
H2       0.95770    0.73986    1.04385   1.00
H2       0.88114    0.64725    0.88042   1.00
H2       0.91515    0.81425    1.11383   1.00
H2       0.93063    0.65702    0.87025   1.00
H2       0.95928    0.78893    1.12149   1.00
H2       0.91666    0.64189    0.91739   1.00
H2       0.94851    0.80817    1.07502   1.00
C4       0.75479    0.98025    0.75010   1.00
C4       0.75568    1.02191    0.75137   1.00
C3       0.75801    0.95897    0.71453   1.00
C3       0.76395    1.04504    0.71782   1.00
C3       0.75047    0.95854    0.78548   1.00
C3       0.74816    1.04170    0.78733   1.00
C2       0.75491    0.89595    0.74770   1.00
C2       0.75562    1.10622    0.75346   1.00
C3       0.75828    0.91811    0.71330   1.00
C3       0.76374    1.08591    0.71871   1.00
C3       0.75109    0.91696    0.78300   1.00
C3       0.74801    1.08336    0.78695   1.00
H1       0.75990    0.97237    0.68812   1.00
H1       0.77081    1.03306    0.69156   1.00
C5       0.74546    0.97835    0.82201   1.00
C5       0.74127    1.01998    0.82243   1.00
H1       0.76085    0.90451    0.68672   1.00
H1       0.76978    1.10091    0.69347   1.00
H1       0.74837    0.90052    0.80755   1.00
H1       0.74251    1.09848    0.81188   1.00
C6       0.74510    0.95515    0.85961   1.00
C6       0.72925    1.04119    0.85929   1.00
H2       0.76833    0.93345    0.85865   1.00
H2       0.70740    1.06310    0.85200   1.00
H2       0.75391    0.97286    0.88440   1.00
H2       0.71306    1.02228    0.87894   1.00
C6       0.70452    0.93606    0.86864   1.00
C6       0.76458    1.05942    0.88192   1.00
H2       0.69275    0.92292    0.84206   1.00
H2       0.78419    1.07383    0.86130   1.00
C6       0.70287    0.90459    0.90171   1.00
C6       0.75517    1.08911    0.91535   1.00
H2       0.68423    0.95949    0.87611   1.00
H2       0.78156    1.03546    0.89432   1.00
C6       0.72607    0.86735    0.89054   1.00
C6       0.73651    1.12708    0.89924   1.00
C6       0.71858    0.92074    0.94090   1.00
C6       0.72778    1.07107    0.94646   1.00
C6       0.65966    0.89245    0.90792   1.00
C6       0.79396    1.10054    0.93581   1.00
H2       0.71609    0.85558    0.86265   1.00
H2       0.75486    1.14020    0.87672   1.00
H2       0.75718    0.87330    0.88806   1.00
H2       0.70792    1.12154    0.88653   1.00
H2       0.72252    0.84459    0.91253   1.00
H2       0.73257    1.14863    0.92235   1.00
H2       0.71473    0.89955    0.96437   1.00
H2       0.72366    1.09098    0.97099   1.00
H2       0.74965    0.92725    0.93891   1.00
H2       0.69908    1.06494    0.93420   1.00
H2       0.70328    0.94745    0.94904   1.00
H2       0.73986    1.04385    0.95770   1.00
H2       0.64725    0.88042    0.88114   1.00
H2       0.81425    1.11383    0.91515   1.00
H2       0.65702    0.87025    0.93063   1.00
H2       0.78893    1.12149    0.95928   1.00
H2       0.64189    0.91739    0.91666   1.00
H2       0.80817    1.07502    0.94851   1.00
C4       0.51975    0.75010    0.74521   1.00
C4       0.47809    0.75137    0.74432   1.00
C3       0.54103    0.71453    0.74199   1.00
C3       0.45496    0.71782    0.73605   1.00
C3       0.54146    0.78548    0.74953   1.00
C3       0.45830    0.78733    0.75184   1.00
C2       0.60405    0.74770    0.74509   1.00
C2       0.39378    0.75346    0.74438   1.00
C3       0.58189    0.71330    0.74172   1.00
C3       0.41409    0.71871    0.73626   1.00
C3       0.58304    0.78300    0.74891   1.00
C3       0.41664    0.78695    0.75199   1.00
H1       0.52763    0.68812    0.74010   1.00
H1       0.46694    0.69156    0.72919   1.00
C5       0.52165    0.82201    0.75454   1.00
C5       0.48002    0.82243    0.75873   1.00
H1       0.59549    0.68672    0.73915   1.00
H1       0.39909    0.69347    0.73022   1.00
H1       0.59948    0.80755    0.75163   1.00
H1       0.40152    0.81188    0.75749   1.00
C6       0.54485    0.85961    0.75490   1.00
C6       0.45881    0.85929    0.77075   1.00
H2       0.56655    0.85865    0.73167   1.00
H2       0.43690    0.85200    0.79260   1.00
H2       0.52714    0.88440    0.74609   1.00
H2       0.47772    0.87894    0.78694   1.00
C6       0.56394    0.86864    0.79548   1.00
C6       0.44058    0.88192    0.73542   1.00
H2       0.57708    0.84206    0.80725   1.00
H2       0.42617    0.86130    0.71581   1.00
C6       0.59541    0.90171    0.79713   1.00
C6       0.41089    0.91535    0.74483   1.00
H2       0.54051    0.87611    0.81577   1.00
H2       0.46454    0.89432    0.71844   1.00
C6       0.63265    0.89054    0.77393   1.00
C6       0.37292    0.89924    0.76349   1.00
C6       0.57926    0.94090    0.78142   1.00
C6       0.42893    0.94646    0.77222   1.00
C6       0.60755    0.90792    0.84034   1.00
C6       0.39946    0.93581    0.70604   1.00
H2       0.64442    0.86265    0.78391   1.00
H2       0.35980    0.87672    0.74514   1.00
H2       0.62670    0.88806    0.74282   1.00
H2       0.37846    0.88653    0.79208   1.00
H2       0.65541    0.91253    0.77748   1.00
H2       0.35137    0.92235    0.76743   1.00
H2       0.60045    0.96437    0.78527   1.00
H2       0.40902    0.97099    0.77634   1.00
H2       0.57275    0.93891    0.75035   1.00
H2       0.43506    0.93420    0.80092   1.00
H2       0.55255    0.94904    0.79672   1.00
H2       0.45615    0.95770    0.76014   1.00
H2       0.61958    0.88114    0.85275   1.00
H2       0.38617    0.91515    0.68575   1.00
H2       0.62975    0.93063    0.84298   1.00
H2       0.37851    0.95928    0.71107   1.00
H2       0.58261    0.91666    0.85811   1.00
H2       0.42498    0.94851    0.69183   1.00
C4       0.98025    0.75010    0.75479   1.00
C4       1.02191    0.75137    0.75568   1.00
C3       0.95897    0.71453    0.75801   1.00
C3       1.04504    0.71782    0.76395   1.00
C3       0.95854    0.78548    0.75047   1.00
C3       1.04170    0.78733    0.74816   1.00
C2       0.89595    0.74770    0.75491   1.00
C2       1.10622    0.75346    0.75562   1.00
C3       0.91811    0.71330    0.75828   1.00
C3       1.08591    0.71871    0.76374   1.00
C3       0.91696    0.78300    0.75109   1.00
C3       1.08336    0.78695    0.74801   1.00
H1       0.97237    0.68812    0.75990   1.00
H1       1.03306    0.69156    0.77081   1.00
C5       0.97835    0.82201    0.74546   1.00
C5       1.01998    0.82243    0.74127   1.00
H1       0.90451    0.68672    0.76085   1.00
H1       1.10091    0.69347    0.76978   1.00
H1       0.90052    0.80755    0.74837   1.00
H1       1.09848    0.81188    0.74251   1.00
C6       0.95515    0.85961    0.74510   1.00
C6       1.04119    0.85929    0.72925   1.00
H2       0.93345    0.85865    0.76833   1.00
H2       1.06310    0.85200    0.70740   1.00
H2       0.97286    0.88440    0.75391   1.00
H2       1.02228    0.87894    0.71306   1.00
C6       0.93606    0.86864    0.70452   1.00
C6       1.05942    0.88192    0.76458   1.00
H2       0.92292    0.84206    0.69275   1.00
H2       1.07383    0.86130    0.78419   1.00
C6       0.90459    0.90171    0.70287   1.00
C6       1.08911    0.91535    0.75517   1.00
H2       0.95949    0.87611    0.68423   1.00
H2       1.03546    0.89432    0.78156   1.00
C6       0.86735    0.89054    0.72607   1.00
C6       1.12708    0.89924    0.73651   1.00
C6       0.92074    0.94090    0.71858   1.00
C6       1.07107    0.94646    0.72778   1.00
C6       0.89245    0.90792    0.65966   1.00
C6       1.10054    0.93581    0.79396   1.00
H2       0.85558    0.86265    0.71609   1.00
H2       1.14020    0.87672    0.75486   1.00
H2       0.87330    0.88806    0.75718   1.00
H2       1.12154    0.88653    0.70792   1.00
H2       0.84459    0.91253    0.72252   1.00
H2       1.14863    0.92235    0.73257   1.00
H2       0.89955    0.96437    0.71473   1.00
H2       1.09098    0.97099    0.72366   1.00
H2       0.92725    0.93891    0.74965   1.00
H2       1.06494    0.93420    0.69908   1.00
H2       0.94745    0.94904    0.70328   1.00
H2       1.04385    0.95770    0.73986   1.00
H2       0.88042    0.88114    0.64725   1.00
H2       1.11383    0.91515    0.81425   1.00
H2       0.87025    0.93063    0.65702   1.00
H2       1.12149    0.95928    0.78893   1.00
H2       0.91739    0.91666    0.64189   1.00
H2       1.07502    0.94851    0.80817   1.00
C4       0.74521    0.51975    0.75010   1.00
C4       0.74432    0.47809    0.75137   1.00
C3       0.74199    0.54103    0.71453   1.00
C3       0.73605    0.45496    0.71782   1.00
C3       0.74953    0.54146    0.78548   1.00
C3       0.75184    0.45830    0.78733   1.00
C2       0.74509    0.60405    0.74770   1.00
C2       0.74438    0.39378    0.75346   1.00
C3       0.74172    0.58189    0.71330   1.00
C3       0.73626    0.41409    0.71871   1.00
C3       0.74891    0.58304    0.78300   1.00
C3       0.75199    0.41664    0.78695   1.00
H1       0.74010    0.52763    0.68812   1.00
H1       0.72919    0.46694    0.69156   1.00
C5       0.75454    0.52165    0.82201   1.00
C5       0.75873    0.48002    0.82243   1.00
H1       0.73915    0.59549    0.68672   1.00
H1       0.73022    0.39909    0.69347   1.00
H1       0.75163    0.59948    0.80755   1.00
H1       0.75749    0.40152    0.81188   1.00
C6       0.75490    0.54485    0.85961   1.00
C6       0.77075    0.45881    0.85929   1.00
H2       0.73167    0.56655    0.85865   1.00
H2       0.79260    0.43690    0.85200   1.00
H2       0.74609    0.52714    0.88440   1.00
H2       0.78694    0.47772    0.87894   1.00
C6       0.79548    0.56394    0.86864   1.00
C6       0.73542    0.44058    0.88192   1.00
H2       0.80725    0.57708    0.84206   1.00
H2       0.71581    0.42617    0.86130   1.00
C6       0.79713    0.59541    0.90171   1.00
C6       0.74483    0.41089    0.91535   1.00
H2       0.81577    0.54051    0.87611   1.00
H2       0.71844    0.46454    0.89432   1.00
C6       0.77393    0.63265    0.89054   1.00
C6       0.76349    0.37292    0.89924   1.00
C6       0.78142    0.57926    0.94090   1.00
C6       0.77222    0.42893    0.94646   1.00
C6       0.84034    0.60755    0.90792   1.00
C6       0.70604    0.39946    0.93581   1.00
H2       0.78391    0.64442    0.86265   1.00
H2       0.74514    0.35980    0.87672   1.00
H2       0.74282    0.62670    0.88806   1.00
H2       0.79208    0.37846    0.88653   1.00
H2       0.77748    0.65541    0.91253   1.00
H2       0.76743    0.35137    0.92235   1.00
H2       0.78527    0.60045    0.96437   1.00
H2       0.77634    0.40902    0.97099   1.00
H2       0.75035    0.57275    0.93891   1.00
H2       0.80092    0.43506    0.93420   1.00
H2       0.79672    0.55255    0.94904   1.00
H2       0.76014    0.45615    0.95770   1.00
H2       0.85275    0.61958    0.88114   1.00
H2       0.68575    0.38617    0.91515   1.00
H2       0.84298    0.62975    0.93063   1.00
H2       0.71107    0.37851    0.95928   1.00
H2       0.85811    0.58261    0.91666   1.00
H2       0.69183    0.42498    0.94851   1.00
C4       0.75010    0.74521    0.51975   1.00
C4       0.75137    0.74432    0.47809   1.00
C3       0.71453    0.74199    0.54103   1.00
C3       0.71782    0.73605    0.45496   1.00
C3       0.78548    0.74953    0.54146   1.00
C3       0.78733    0.75184    0.45830   1.00
C2       0.74770    0.74509    0.60405   1.00
C2       0.75346    0.74438    0.39378   1.00
C3       0.71330    0.74172    0.58189   1.00
C3       0.71871    0.73626    0.41409   1.00
C3       0.78300    0.74891    0.58304   1.00
C3       0.78695    0.75199    0.41664   1.00
H1       0.68812    0.74010    0.52763   1.00
H1       0.69156    0.72919    0.46694   1.00
C5       0.82201    0.75454    0.52165   1.00
C5       0.82243    0.75873    0.48002   1.00
H1       0.68672    0.73915    0.59549   1.00
H1       0.69347    0.73022    0.39909   1.00
H1       0.80755    0.75163    0.59948   1.00
H1       0.81188    0.75749    0.40152   1.00
C6       0.85961    0.75490    0.54485   1.00
C6       0.85929    0.77075    0.45881   1.00
H2       0.85865    0.73167    0.56655   1.00
H2       0.85200    0.79260    0.43690   1.00
H2       0.88440    0.74609    0.52714   1.00
H2       0.87894    0.78694    0.47772   1.00
C6       0.86864    0.79548    0.56394   1.00
C6       0.88192    0.73542    0.44058   1.00
H2       0.84206    0.80725    0.57708   1.00
H2       0.86130    0.71581    0.42617   1.00
C6       0.90171    0.79713    0.59541   1.00
C6       0.91535    0.74483    0.41089   1.00
H2       0.87611    0.81577    0.54051   1.00
H2       0.89432    0.71844    0.46454   1.00
C6       0.89054    0.77393    0.63265   1.00
C6       0.89924    0.76349    0.37292   1.00
C6       0.94090    0.78142    0.57926   1.00
C6       0.94646    0.77222    0.42893   1.00
C6       0.90792    0.84034    0.60755   1.00
C6       0.93581    0.70604    0.39946   1.00
H2       0.86265    0.78391    0.64442   1.00
H2       0.87672    0.74514    0.35980   1.00
H2       0.88806    0.74282    0.62670   1.00
H2       0.88653    0.79208    0.37846   1.00
H2       0.91253    0.77748    0.65541   1.00
H2       0.92235    0.76743    0.35137   1.00
H2       0.96437    0.78527    0.60045   1.00
H2       0.97099    0.77634    0.40902   1.00
H2       0.93891    0.75035    0.57275   1.00
H2       0.93420    0.80092    0.43506   1.00
H2       0.94904    0.79672    0.55255   1.00
H2       0.95770    0.76014    0.45615   1.00
H2       0.88114    0.85275    0.61958   1.00
H2       0.91515    0.68575    0.38617   1.00
H2       0.93063    0.84298    0.62975   1.00
H2       0.95928    0.71107    0.37851   1.00
H2       0.91666    0.85811    0.58261   1.00
H2       0.94851    0.69183    0.42498   1.00
C4       0.25010    0.25479    0.98025   1.00
C4       0.25137    0.25568    1.02191   1.00
C3       0.21453    0.25801    0.95897   1.00
C3       0.21782    0.26395    1.04504   1.00
C3       0.28548    0.25047    0.95854   1.00
C3       0.28733    0.24816    1.04170   1.00
C2       0.24770    0.25491    0.89595   1.00
C2       0.25346    0.25562    1.10622   1.00
C3       0.21330    0.25828    0.91811   1.00
C3       0.21871    0.26374    1.08591   1.00
C3       0.28300    0.25109    0.91696   1.00
C3       0.28695    0.24801    1.08336   1.00
H1       0.18812    0.25990    0.97237   1.00
H1       0.19156    0.27081    1.03306   1.00
C5       0.32201    0.24546    0.97835   1.00
C5       0.32243    0.24127    1.01998   1.00
H1       0.18672    0.26085    0.90451   1.00
H1       0.19347    0.26978    1.10091   1.00
H1       0.30755    0.24837    0.90052   1.00
H1       0.31188    0.24251    1.09848   1.00
C6       0.35961    0.24510    0.95515   1.00
C6       0.35929    0.22925    1.04119   1.00
H2       0.35865    0.26833    0.93345   1.00
H2       0.35200    0.20740    1.06310   1.00
H2       0.38440    0.25391    0.97286   1.00
H2       0.37894    0.21306    1.02228   1.00
C6       0.36864    0.20452    0.93606   1.00
C6       0.38192    0.26458    1.05942   1.00
H2       0.34206    0.19275    0.92292   1.00
H2       0.36130    0.28419    1.07383   1.00
C6       0.40171    0.20287    0.90459   1.00
C6       0.41535    0.25517    1.08911   1.00
H2       0.37611    0.18423    0.95949   1.00
H2       0.39432    0.28156    1.03546   1.00
C6       0.39054    0.22607    0.86735   1.00
C6       0.39924    0.23651    1.12708   1.00
C6       0.44090    0.21858    0.92074   1.00
C6       0.44646    0.22778    1.07107   1.00
C6       0.40792    0.15966    0.89245   1.00
C6       0.43581    0.29396    1.10054   1.00
H2       0.36265    0.21609    0.85558   1.00
H2       0.37672    0.25486    1.14020   1.00
H2       0.38806    0.25718    0.87330   1.00
H2       0.38653    0.20792    1.12154   1.00
H2       0.41253    0.22252    0.84459   1.00
H2       0.42235    0.23257    1.14863   1.00
H2       0.46437    0.21473    0.89955   1.00
H2       0.47099    0.22366    1.09098   1.00
H2       0.43891    0.24965    0.92725   1.00
H2       0.43420    0.19908    1.06494   1.00
H2       0.44904    0.20328    0.94745   1.00
H2       0.45770    0.23986    1.04385   1.00
H2       0.38114    0.14725    0.88042   1.00
H2       0.41515    0.31425    1.11383   1.00
H2       0.43063    0.15702    0.87025   1.00
H2       0.45928    0.28893    1.12149   1.00
H2       0.41666    0.14189    0.91739   1.00
H2       0.44851    0.30817    1.07502   1.00
C4       0.25479    0.48025    0.75010   1.00
C4       0.25568    0.52191    0.75137   1.00
C3       0.25801    0.45897    0.71453   1.00
C3       0.26395    0.54504    0.71782   1.00
C3       0.25047    0.45854    0.78548   1.00
C3       0.24816    0.54170    0.78733   1.00
C2       0.25491    0.39595    0.74770   1.00
C2       0.25562    0.60622    0.75346   1.00
C3       0.25828    0.41811    0.71330   1.00
C3       0.26374    0.58591    0.71871   1.00
C3       0.25109    0.41696    0.78300   1.00
C3       0.24801    0.58336    0.78695   1.00
H1       0.25990    0.47237    0.68812   1.00
H1       0.27081    0.53306    0.69156   1.00
C5       0.24546    0.47835    0.82201   1.00
C5       0.24127    0.51998    0.82243   1.00
H1       0.26085    0.40451    0.68672   1.00
H1       0.26978    0.60091    0.69347   1.00
H1       0.24837    0.40052    0.80755   1.00
H1       0.24251    0.59848    0.81188   1.00
C6       0.24510    0.45515    0.85961   1.00
C6       0.22925    0.54119    0.85929   1.00
H2       0.26833    0.43345    0.85865   1.00
H2       0.20740    0.56310    0.85200   1.00
H2       0.25391    0.47286    0.88440   1.00
H2       0.21306    0.52228    0.87894   1.00
C6       0.20452    0.43606    0.86864   1.00
C6       0.26458    0.55942    0.88192   1.00
H2       0.19275    0.42292    0.84206   1.00
H2       0.28419    0.57383    0.86130   1.00
C6       0.20287    0.40459    0.90171   1.00
C6       0.25517    0.58911    0.91535   1.00
H2       0.18423    0.45949    0.87611   1.00
H2       0.28156    0.53546    0.89432   1.00
C6       0.22607    0.36735    0.89054   1.00
C6       0.23651    0.62708    0.89924   1.00
C6       0.21858    0.42074    0.94090   1.00
C6       0.22778    0.57107    0.94646   1.00
C6       0.15966    0.39245    0.90792   1.00
C6       0.29396    0.60054    0.93581   1.00
H2       0.21609    0.35558    0.86265   1.00
H2       0.25486    0.64020    0.87672   1.00
H2       0.25718    0.37330    0.88806   1.00
H2       0.20792    0.62154    0.88653   1.00
H2       0.22252    0.34459    0.91253   1.00
H2       0.23257    0.64863    0.92235   1.00
H2       0.21473    0.39955    0.96437   1.00
H2       0.22366    0.59098    0.97099   1.00
H2       0.24965    0.42725    0.93891   1.00
H2       0.19908    0.56494    0.93420   1.00
H2       0.20328    0.44745    0.94904   1.00
H2       0.23986    0.54385    0.95770   1.00
H2       0.14725    0.38042    0.88114   1.00
H2       0.31425    0.61383    0.91515   1.00
H2       0.15702    0.37025    0.93063   1.00
H2       0.28893    0.62149    0.95928   1.00
H2       0.14189    0.41739    0.91666   1.00
H2       0.30817    0.57502    0.94851   1.00
C4       0.01975    0.25010    0.74521   1.00
C4       -0.02191   0.25137    0.74432   1.00
C3       0.04103    0.21453    0.74199   1.00
C3       -0.04504   0.21782    0.73605   1.00
C3       0.04146    0.28548    0.74953   1.00
C3       -0.04170   0.28733    0.75184   1.00
C2       0.10405    0.24770    0.74509   1.00
C2       -0.10622   0.25346    0.74438   1.00
C3       0.08189    0.21330    0.74172   1.00
C3       -0.08591   0.21871    0.73626   1.00
C3       0.08304    0.28300    0.74891   1.00
C3       -0.08336   0.28695    0.75199   1.00
H1       0.02763    0.18812    0.74010   1.00
H1       -0.03306   0.19156    0.72919   1.00
C5       0.02165    0.32201    0.75454   1.00
C5       -0.01998   0.32243    0.75873   1.00
H1       0.09549    0.18672    0.73915   1.00
H1       -0.10091   0.19347    0.73022   1.00
H1       0.09948    0.30755    0.75163   1.00
H1       -0.09848   0.31188    0.75749   1.00
C6       0.04485    0.35961    0.75490   1.00
C6       -0.04119   0.35929    0.77075   1.00
H2       0.06655    0.35865    0.73167   1.00
H2       -0.06310   0.35200    0.79260   1.00
H2       0.02714    0.38440    0.74609   1.00
H2       -0.02228   0.37894    0.78694   1.00
C6       0.06394    0.36864    0.79548   1.00
C6       -0.05942   0.38192    0.73542   1.00
H2       0.07708    0.34206    0.80725   1.00
H2       -0.07383   0.36130    0.71581   1.00
C6       0.09541    0.40171    0.79713   1.00
C6       -0.08911   0.41535    0.74483   1.00
H2       0.04051    0.37611    0.81577   1.00
H2       -0.03546   0.39432    0.71844   1.00
C6       0.13265    0.39054    0.77393   1.00
C6       -0.12708   0.39924    0.76349   1.00
C6       0.07926    0.44090    0.78142   1.00
C6       -0.07107   0.44646    0.77222   1.00
C6       0.10755    0.40792    0.84034   1.00
C6       -0.10054   0.43581    0.70604   1.00
H2       0.14442    0.36265    0.78391   1.00
H2       -0.14020   0.37672    0.74514   1.00
H2       0.12670    0.38806    0.74282   1.00
H2       -0.12154   0.38653    0.79208   1.00
H2       0.15541    0.41253    0.77748   1.00
H2       -0.14863   0.42235    0.76743   1.00
H2       0.10045    0.46437    0.78527   1.00
H2       -0.09098   0.47099    0.77634   1.00
H2       0.07275    0.43891    0.75035   1.00
H2       -0.06494   0.43420    0.80092   1.00
H2       0.05255    0.44904    0.79672   1.00
H2       -0.04385   0.45770    0.76014   1.00
H2       0.11958    0.38114    0.85275   1.00
H2       -0.11383   0.41515    0.68575   1.00
H2       0.12975    0.43063    0.84298   1.00
H2       -0.12149   0.45928    0.71107   1.00
H2       0.08261    0.41666    0.85811   1.00
H2       -0.07502   0.44851    0.69183   1.00
C4       0.48025    0.25010    0.75479   1.00
C4       0.52191    0.25137    0.75568   1.00
C3       0.45897    0.21453    0.75801   1.00
C3       0.54504    0.21782    0.76395   1.00
C3       0.45854    0.28548    0.75047   1.00
C3       0.54170    0.28733    0.74816   1.00
C2       0.39595    0.24770    0.75491   1.00
C2       0.60622    0.25346    0.75562   1.00
C3       0.41811    0.21330    0.75828   1.00
C3       0.58591    0.21871    0.76374   1.00
C3       0.41696    0.28300    0.75109   1.00
C3       0.58336    0.28695    0.74801   1.00
H1       0.47237    0.18812    0.75990   1.00
H1       0.53306    0.19156    0.77081   1.00
C5       0.47835    0.32201    0.74546   1.00
C5       0.51998    0.32243    0.74127   1.00
H1       0.40451    0.18672    0.76085   1.00
H1       0.60091    0.19347    0.76978   1.00
H1       0.40052    0.30755    0.74837   1.00
H1       0.59848    0.31188    0.74251   1.00
C6       0.45515    0.35961    0.74510   1.00
C6       0.54119    0.35929    0.72925   1.00
H2       0.43345    0.35865    0.76833   1.00
H2       0.56310    0.35200    0.70740   1.00
H2       0.47286    0.38440    0.75391   1.00
H2       0.52228    0.37894    0.71306   1.00
C6       0.43606    0.36864    0.70452   1.00
C6       0.55942    0.38192    0.76458   1.00
H2       0.42292    0.34206    0.69275   1.00
H2       0.57383    0.36130    0.78419   1.00
C6       0.40459    0.40171    0.70287   1.00
C6       0.58911    0.41535    0.75517   1.00
H2       0.45949    0.37611    0.68423   1.00
H2       0.53546    0.39432    0.78156   1.00
C6       0.36735    0.39054    0.72607   1.00
C6       0.62708    0.39924    0.73651   1.00
C6       0.42074    0.44090    0.71858   1.00
C6       0.57107    0.44646    0.72778   1.00
C6       0.39245    0.40792    0.65966   1.00
C6       0.60054    0.43581    0.79396   1.00
H2       0.35558    0.36265    0.71609   1.00
H2       0.64020    0.37672    0.75486   1.00
H2       0.37330    0.38806    0.75718   1.00
H2       0.62154    0.38653    0.70792   1.00
H2       0.34459    0.41253    0.72252   1.00
H2       0.64863    0.42235    0.73257   1.00
H2       0.39955    0.46437    0.71473   1.00
H2       0.59098    0.47099    0.72366   1.00
H2       0.42725    0.43891    0.74965   1.00
H2       0.56494    0.43420    0.69908   1.00
H2       0.44745    0.44904    0.70328   1.00
H2       0.54385    0.45770    0.73986   1.00
H2       0.38042    0.38114    0.64725   1.00
H2       0.61383    0.41515    0.81425   1.00
H2       0.37025    0.43063    0.65702   1.00
H2       0.62149    0.45928    0.78893   1.00
H2       0.41739    0.41666    0.64189   1.00
H2       0.57502    0.44851    0.80817   1.00
C4       0.24521    0.01975    0.75010   1.00
C4       0.24432    -0.02191   0.75137   1.00
C3       0.24199    0.04103    0.71453   1.00
C3       0.23605    -0.04504   0.71782   1.00
C3       0.24953    0.04146    0.78548   1.00
C3       0.25184    -0.04170   0.78733   1.00
C2       0.24509    0.10405    0.74770   1.00
C2       0.24438    -0.10622   0.75346   1.00
C3       0.24172    0.08189    0.71330   1.00
C3       0.23626    -0.08591   0.71871   1.00
C3       0.24891    0.08304    0.78300   1.00
C3       0.25199    -0.08336   0.78695   1.00
H1       0.24010    0.02763    0.68812   1.00
H1       0.22919    -0.03306   0.69156   1.00
C5       0.25454    0.02165    0.82201   1.00
C5       0.25873    -0.01998   0.82243   1.00
H1       0.23915    0.09549    0.68672   1.00
H1       0.23022    -0.10091   0.69347   1.00
H1       0.25163    0.09948    0.80755   1.00
H1       0.25749    -0.09848   0.81188   1.00
C6       0.25490    0.04485    0.85961   1.00
C6       0.27075    -0.04119   0.85929   1.00
H2       0.23167    0.06655    0.85865   1.00
H2       0.29260    -0.06310   0.85200   1.00
H2       0.24609    0.02714    0.88440   1.00
H2       0.28694    -0.02228   0.87894   1.00
C6       0.29548    0.06394    0.86864   1.00
C6       0.23542    -0.05942   0.88192   1.00
H2       0.30725    0.07708    0.84206   1.00
H2       0.21581    -0.07383   0.86130   1.00
C6       0.29713    0.09541    0.90171   1.00
C6       0.24483    -0.08911   0.91535   1.00
H2       0.31577    0.04051    0.87611   1.00
H2       0.21844    -0.03546   0.89432   1.00
C6       0.27393    0.13265    0.89054   1.00
C6       0.26349    -0.12708   0.89924   1.00
C6       0.28142    0.07926    0.94090   1.00
C6       0.27222    -0.07107   0.94646   1.00
C6       0.34034    0.10755    0.90792   1.00
C6       0.20604    -0.10054   0.93581   1.00
H2       0.28391    0.14442    0.86265   1.00
H2       0.24514    -0.14020   0.87672   1.00
H2       0.24282    0.12670    0.88806   1.00
H2       0.29208    -0.12154   0.88653   1.00
H2       0.27748    0.15541    0.91253   1.00
H2       0.26743    -0.14863   0.92235   1.00
H2       0.28527    0.10045    0.96437   1.00
H2       0.27634    -0.09098   0.97099   1.00
H2       0.25035    0.07275    0.93891   1.00
H2       0.30092    -0.06494   0.93420   1.00
H2       0.29672    0.05255    0.94904   1.00
H2       0.26014    -0.04385   0.95770   1.00
H2       0.35275    0.11958    0.88114   1.00
H2       0.18575    -0.11383   0.91515   1.00
H2       0.34298    0.12975    0.93063   1.00
H2       0.21107    -0.12149   0.95928   1.00
H2       0.35811    0.08261    0.91666   1.00
H2       0.19183    -0.07502   0.94851   1.00
C4       0.25010    0.24521    0.51975   1.00
C4       0.25137    0.24432    0.47809   1.00
C3       0.21453    0.24199    0.54103   1.00
C3       0.21782    0.23605    0.45496   1.00
C3       0.28548    0.24953    0.54146   1.00
C3       0.28733    0.25184    0.45830   1.00
C2       0.24770    0.24509    0.60405   1.00
C2       0.25346    0.24438    0.39378   1.00
C3       0.21330    0.24172    0.58189   1.00
C3       0.21871    0.23626    0.41409   1.00
C3       0.28300    0.24891    0.58304   1.00
C3       0.28695    0.25199    0.41664   1.00
H1       0.18812    0.24010    0.52763   1.00
H1       0.19156    0.22919    0.46694   1.00
C5       0.32201    0.25454    0.52165   1.00
C5       0.32243    0.25873    0.48002   1.00
H1       0.18672    0.23915    0.59549   1.00
H1       0.19347    0.23022    0.39909   1.00
H1       0.30755    0.25163    0.59948   1.00
H1       0.31188    0.25749    0.40152   1.00
C6       0.35961    0.25490    0.54485   1.00
C6       0.35929    0.27075    0.45881   1.00
H2       0.35865    0.23167    0.56655   1.00
H2       0.35200    0.29260    0.43690   1.00
H2       0.38440    0.24609    0.52714   1.00
H2       0.37894    0.28694    0.47772   1.00
C6       0.36864    0.29548    0.56394   1.00
C6       0.38192    0.23542    0.44058   1.00
H2       0.34206    0.30725    0.57708   1.00
H2       0.36130    0.21581    0.42617   1.00
C6       0.40171    0.29713    0.59541   1.00
C6       0.41535    0.24483    0.41089   1.00
H2       0.37611    0.31577    0.54051   1.00
H2       0.39432    0.21844    0.46454   1.00
C6       0.39054    0.27393    0.63265   1.00
C6       0.39924    0.26349    0.37292   1.00
C6       0.44090    0.28142    0.57926   1.00
C6       0.44646    0.27222    0.42893   1.00
C6       0.40792    0.34034    0.60755   1.00
C6       0.43581    0.20604    0.39946   1.00
H2       0.36265    0.28391    0.64442   1.00
H2       0.37672    0.24514    0.35980   1.00
H2       0.38806    0.24282    0.62670   1.00
H2       0.38653    0.29208    0.37846   1.00
H2       0.41253    0.27748    0.65541   1.00
H2       0.42235    0.26743    0.35137   1.00
H2       0.46437    0.28527    0.60045   1.00
H2       0.47099    0.27634    0.40902   1.00
H2       0.43891    0.25035    0.57275   1.00
H2       0.43420    0.30092    0.43506   1.00
H2       0.44904    0.29672    0.55255   1.00
H2       0.45770    0.26014    0.45615   1.00
H2       0.38114    0.35275    0.61958   1.00
H2       0.41515    0.18575    0.38617   1.00
H2       0.43063    0.34298    0.62975   1.00
H2       0.45928    0.21107    0.37851   1.00
H2       0.41666    0.35811    0.58261   1.00
H2       0.44851    0.19183    0.42498   1.00
C4       0.25010    0.75479    0.48025   1.00
C4       0.25137    0.75568    0.52191   1.00
C3       0.21453    0.75801    0.45897   1.00
C3       0.21782    0.76395    0.54504   1.00
C3       0.28548    0.75047    0.45854   1.00
C3       0.28733    0.74816    0.54170   1.00
C2       0.24770    0.75491    0.39595   1.00
C2       0.25346    0.75562    0.60622   1.00
C3       0.21330    0.75828    0.41811   1.00
C3       0.21871    0.76374    0.58591   1.00
C3       0.28300    0.75109    0.41696   1.00
C3       0.28695    0.74801    0.58336   1.00
H1       0.18812    0.75990    0.47237   1.00
H1       0.19156    0.77081    0.53306   1.00
C5       0.32201    0.74546    0.47835   1.00
C5       0.32243    0.74127    0.51998   1.00
H1       0.18672    0.76085    0.40451   1.00
H1       0.19347    0.76978    0.60091   1.00
H1       0.30755    0.74837    0.40052   1.00
H1       0.31188    0.74251    0.59848   1.00
C6       0.35961    0.74510    0.45515   1.00
C6       0.35929    0.72925    0.54119   1.00
H2       0.35865    0.76833    0.43345   1.00
H2       0.35200    0.70740    0.56310   1.00
H2       0.38440    0.75391    0.47286   1.00
H2       0.37894    0.71306    0.52228   1.00
C6       0.36864    0.70452    0.43606   1.00
C6       0.38192    0.76458    0.55942   1.00
H2       0.34206    0.69275    0.42292   1.00
H2       0.36130    0.78419    0.57383   1.00
C6       0.40171    0.70287    0.40459   1.00
C6       0.41535    0.75517    0.58911   1.00
H2       0.37611    0.68423    0.45949   1.00
H2       0.39432    0.78156    0.53546   1.00
C6       0.39054    0.72607    0.36735   1.00
C6       0.39924    0.73651    0.62708   1.00
C6       0.44090    0.71858    0.42074   1.00
C6       0.44646    0.72778    0.57107   1.00
C6       0.40792    0.65966    0.39245   1.00
C6       0.43581    0.79396    0.60054   1.00
H2       0.36265    0.71609    0.35558   1.00
H2       0.37672    0.75486    0.64020   1.00
H2       0.38806    0.75718    0.37330   1.00
H2       0.38653    0.70792    0.62154   1.00
H2       0.41253    0.72252    0.34459   1.00
H2       0.42235    0.73257    0.64863   1.00
H2       0.46437    0.71473    0.39955   1.00
H2       0.47099    0.72366    0.59098   1.00
H2       0.43891    0.74965    0.42725   1.00
H2       0.43420    0.69908    0.56494   1.00
H2       0.44904    0.70328    0.44745   1.00
H2       0.45770    0.73986    0.54385   1.00
H2       0.38114    0.64725    0.38042   1.00
H2       0.41515    0.81425    0.61383   1.00
H2       0.43063    0.65702    0.37025   1.00
H2       0.45928    0.78893    0.62149   1.00
H2       0.41666    0.64189    0.41739   1.00
H2       0.44851    0.80817    0.57502   1.00
C4       0.25479    0.98025    0.25010   1.00
C4       0.25568    1.02191    0.25137   1.00
C3       0.25801    0.95897    0.21453   1.00
C3       0.26395    1.04504    0.21782   1.00
C3       0.25047    0.95854    0.28548   1.00
C3       0.24816    1.04170    0.28733   1.00
C2       0.25491    0.89595    0.24770   1.00
C2       0.25562    1.10622    0.25346   1.00
C3       0.25828    0.91811    0.21330   1.00
C3       0.26374    1.08591    0.21871   1.00
C3       0.25109    0.91696    0.28300   1.00
C3       0.24801    1.08336    0.28695   1.00
H1       0.25990    0.97237    0.18812   1.00
H1       0.27081    1.03306    0.19156   1.00
C5       0.24546    0.97835    0.32201   1.00
C5       0.24127    1.01998    0.32243   1.00
H1       0.26085    0.90451    0.18672   1.00
H1       0.26978    1.10091    0.19347   1.00
H1       0.24837    0.90052    0.30755   1.00
H1       0.24251    1.09848    0.31188   1.00
C6       0.24510    0.95515    0.35961   1.00
C6       0.22925    1.04119    0.35929   1.00
H2       0.26833    0.93345    0.35865   1.00
H2       0.20740    1.06310    0.35200   1.00
H2       0.25391    0.97286    0.38440   1.00
H2       0.21306    1.02228    0.37894   1.00
C6       0.20452    0.93606    0.36864   1.00
C6       0.26458    1.05942    0.38192   1.00
H2       0.19275    0.92292    0.34206   1.00
H2       0.28419    1.07383    0.36130   1.00
C6       0.20287    0.90459    0.40171   1.00
C6       0.25517    1.08911    0.41535   1.00
H2       0.18423    0.95949    0.37611   1.00
H2       0.28156    1.03546    0.39432   1.00
C6       0.22607    0.86735    0.39054   1.00
C6       0.23651    1.12708    0.39924   1.00
C6       0.21858    0.92074    0.44090   1.00
C6       0.22778    1.07107    0.44646   1.00
C6       0.15966    0.89245    0.40792   1.00
C6       0.29396    1.10054    0.43581   1.00
H2       0.21609    0.85558    0.36265   1.00
H2       0.25486    1.14020    0.37672   1.00
H2       0.25718    0.87330    0.38806   1.00
H2       0.20792    1.12154    0.38653   1.00
H2       0.22252    0.84459    0.41253   1.00
H2       0.23257    1.14863    0.42235   1.00
H2       0.21473    0.89955    0.46437   1.00
H2       0.22366    1.09098    0.47099   1.00
H2       0.24965    0.92725    0.43891   1.00
H2       0.19908    1.06494    0.43420   1.00
H2       0.20328    0.94745    0.44904   1.00
H2       0.23986    1.04385    0.45770   1.00
H2       0.14725    0.88042    0.38114   1.00
H2       0.31425    1.11383    0.41515   1.00
H2       0.15702    0.87025    0.43063   1.00
H2       0.28893    1.12149    0.45928   1.00
H2       0.14189    0.91739    0.41666   1.00
H2       0.30817    1.07502    0.44851   1.00
C4       0.01975    0.75010    0.24521   1.00
C4       -0.02191   0.75137    0.24432   1.00
C3       0.04103    0.71453    0.24199   1.00
C3       -0.04504   0.71782    0.23605   1.00
C3       0.04146    0.78548    0.24953   1.00
C3       -0.04170   0.78733    0.25184   1.00
C2       0.10405    0.74770    0.24509   1.00
C2       -0.10622   0.75346    0.24438   1.00
C3       0.08189    0.71330    0.24172   1.00
C3       -0.08591   0.71871    0.23626   1.00
C3       0.08304    0.78300    0.24891   1.00
C3       -0.08336   0.78695    0.25199   1.00
H1       0.02763    0.68812    0.24010   1.00
H1       -0.03306   0.69156    0.22919   1.00
C5       0.02165    0.82201    0.25454   1.00
C5       -0.01998   0.82243    0.25873   1.00
H1       0.09549    0.68672    0.23915   1.00
H1       -0.10091   0.69347    0.23022   1.00
H1       0.09948    0.80755    0.25163   1.00
H1       -0.09848   0.81188    0.25749   1.00
C6       0.04485    0.85961    0.25490   1.00
C6       -0.04119   0.85929    0.27075   1.00
H2       0.06655    0.85865    0.23167   1.00
H2       -0.06310   0.85200    0.29260   1.00
H2       0.02714    0.88440    0.24609   1.00
H2       -0.02228   0.87894    0.28694   1.00
C6       0.06394    0.86864    0.29548   1.00
C6       -0.05942   0.88192    0.23542   1.00
H2       0.07708    0.84206    0.30725   1.00
H2       -0.07383   0.86130    0.21581   1.00
C6       0.09541    0.90171    0.29713   1.00
C6       -0.08911   0.91535    0.24483   1.00
H2       0.04051    0.87611    0.31577   1.00
H2       -0.03546   0.89432    0.21844   1.00
C6       0.13265    0.89054    0.27393   1.00
C6       -0.12708   0.89924    0.26349   1.00
C6       0.07926    0.94090    0.28142   1.00
C6       -0.07107   0.94646    0.27222   1.00
C6       0.10755    0.90792    0.34034   1.00
C6       -0.10054   0.93581    0.20604   1.00
H2       0.14442    0.86265    0.28391   1.00
H2       -0.14020   0.87672    0.24514   1.00
H2       0.12670    0.88806    0.24282   1.00
H2       -0.12154   0.88653    0.29208   1.00
H2       0.15541    0.91253    0.27748   1.00
H2       -0.14863   0.92235    0.26743   1.00
H2       0.10045    0.96437    0.28527   1.00
H2       -0.09098   0.97099    0.27634   1.00
H2       0.07275    0.93891    0.25035   1.00
H2       -0.06494   0.93420    0.30092   1.00
H2       0.05255    0.94904    0.29672   1.00
H2       -0.04385   0.95770    0.26014   1.00
H2       0.11958    0.88114    0.35275   1.00
H2       -0.11383   0.91515    0.18575   1.00
H2       0.12975    0.93063    0.34298   1.00
H2       -0.12149   0.95928    0.21107   1.00
H2       0.08261    0.91666    0.35811   1.00
H2       -0.07502   0.94851    0.19183   1.00
C4       0.48025    0.75010    0.25479   1.00
C4       0.52191    0.75137    0.25568   1.00
C3       0.45897    0.71453    0.25801   1.00
C3       0.54504    0.71782    0.26395   1.00
C3       0.45854    0.78548    0.25047   1.00
C3       0.54170    0.78733    0.24816   1.00
C2       0.39595    0.74770    0.25491   1.00
C2       0.60622    0.75346    0.25562   1.00
C3       0.41811    0.71330    0.25828   1.00
C3       0.58591    0.71871    0.26374   1.00
C3       0.41696    0.78300    0.25109   1.00
C3       0.58336    0.78695    0.24801   1.00
H1       0.47237    0.68812    0.25990   1.00
H1       0.53306    0.69156    0.27081   1.00
C5       0.47835    0.82201    0.24546   1.00
C5       0.51998    0.82243    0.24127   1.00
H1       0.40451    0.68672    0.26085   1.00
H1       0.60091    0.69347    0.26978   1.00
H1       0.40052    0.80755    0.24837   1.00
H1       0.59848    0.81188    0.24251   1.00
C6       0.45515    0.85961    0.24510   1.00
C6       0.54119    0.85929    0.22925   1.00
H2       0.43345    0.85865    0.26833   1.00
H2       0.56310    0.85200    0.20740   1.00
H2       0.47286    0.88440    0.25391   1.00
H2       0.52228    0.87894    0.21306   1.00
C6       0.43606    0.86864    0.20452   1.00
C6       0.55942    0.88192    0.26458   1.00
H2       0.42292    0.84206    0.19275   1.00
H2       0.57383    0.86130    0.28419   1.00
C6       0.40459    0.90171    0.20287   1.00
C6       0.58911    0.91535    0.25517   1.00
H2       0.45949    0.87611    0.18423   1.00
H2       0.53546    0.89432    0.28156   1.00
C6       0.36735    0.89054    0.22607   1.00
C6       0.62708    0.89924    0.23651   1.00
C6       0.42074    0.94090    0.21858   1.00
C6       0.57107    0.94646    0.22778   1.00
C6       0.39245    0.90792    0.15966   1.00
C6       0.60054    0.93581    0.29396   1.00
H2       0.35558    0.86265    0.21609   1.00
H2       0.64020    0.87672    0.25486   1.00
H2       0.37330    0.88806    0.25718   1.00
H2       0.62154    0.88653    0.20792   1.00
H2       0.34459    0.91253    0.22252   1.00
H2       0.64863    0.92235    0.23257   1.00
H2       0.39955    0.96437    0.21473   1.00
H2       0.59098    0.97099    0.22366   1.00
H2       0.42725    0.93891    0.24965   1.00
H2       0.56494    0.93420    0.19908   1.00
H2       0.44745    0.94904    0.20328   1.00
H2       0.54385    0.95770    0.23986   1.00
H2       0.38042    0.88114    0.14725   1.00
H2       0.61383    0.91515    0.31425   1.00
H2       0.37025    0.93063    0.15702   1.00
H2       0.62149    0.95928    0.28893   1.00
H2       0.41739    0.91666    0.14189   1.00
H2       0.57502    0.94851    0.30817   1.00
C4       0.24521    0.51975    0.25010   1.00
C4       0.24432    0.47809    0.25137   1.00
C3       0.24199    0.54103    0.21453   1.00
C3       0.23605    0.45496    0.21782   1.00
C3       0.24953    0.54146    0.28548   1.00
C3       0.25184    0.45830    0.28733   1.00
C2       0.24509    0.60405    0.24770   1.00
C2       0.24438    0.39378    0.25346   1.00
C3       0.24172    0.58189    0.21330   1.00
C3       0.23626    0.41409    0.21871   1.00
C3       0.24891    0.58304    0.28300   1.00
C3       0.25199    0.41664    0.28695   1.00
H1       0.24010    0.52763    0.18812   1.00
H1       0.22919    0.46694    0.19156   1.00
C5       0.25454    0.52165    0.32201   1.00
C5       0.25873    0.48002    0.32243   1.00
H1       0.23915    0.59549    0.18672   1.00
H1       0.23022    0.39909    0.19347   1.00
H1       0.25163    0.59948    0.30755   1.00
H1       0.25749    0.40152    0.31188   1.00
C6       0.25490    0.54485    0.35961   1.00
C6       0.27075    0.45881    0.35929   1.00
H2       0.23167    0.56655    0.35865   1.00
H2       0.29260    0.43690    0.35200   1.00
H2       0.24609    0.52714    0.38440   1.00
H2       0.28694    0.47772    0.37894   1.00
C6       0.29548    0.56394    0.36864   1.00
C6       0.23542    0.44058    0.38192   1.00
H2       0.30725    0.57708    0.34206   1.00
H2       0.21581    0.42617    0.36130   1.00
C6       0.29713    0.59541    0.40171   1.00
C6       0.24483    0.41089    0.41535   1.00
H2       0.31577    0.54051    0.37611   1.00
H2       0.21844    0.46454    0.39432   1.00
C6       0.27393    0.63265    0.39054   1.00
C6       0.26349    0.37292    0.39924   1.00
C6       0.28142    0.57926    0.44090   1.00
C6       0.27222    0.42893    0.44646   1.00
C6       0.34034    0.60755    0.40792   1.00
C6       0.20604    0.39946    0.43581   1.00
H2       0.28391    0.64442    0.36265   1.00
H2       0.24514    0.35980    0.37672   1.00
H2       0.24282    0.62670    0.38806   1.00
H2       0.29208    0.37846    0.38653   1.00
H2       0.27748    0.65541    0.41253   1.00
H2       0.26743    0.35137    0.42235   1.00
H2       0.28527    0.60045    0.46437   1.00
H2       0.27634    0.40902    0.47099   1.00
H2       0.25035    0.57275    0.43891   1.00
H2       0.30092    0.43506    0.43420   1.00
H2       0.29672    0.55255    0.44904   1.00
H2       0.26014    0.45615    0.45770   1.00
H2       0.35275    0.61958    0.38114   1.00
H2       0.18575    0.38617    0.41515   1.00
H2       0.34298    0.62975    0.43063   1.00
H2       0.21107    0.37851    0.45928   1.00
H2       0.35811    0.58261    0.41666   1.00
H2       0.19183    0.42498    0.44851   1.00
C4       0.25010    0.74521    0.01975   1.00
C4       0.25137    0.74432    -0.02191   1.00
C3       0.21453    0.74199    0.04103   1.00
C3       0.21782    0.73605    -0.04504   1.00
C3       0.28548    0.74953    0.04146   1.00
C3       0.28733    0.75184    -0.04170   1.00
C2       0.24770    0.74509    0.10405   1.00
C2       0.25346    0.74438    -0.10622   1.00
C3       0.21330    0.74172    0.08189   1.00
C3       0.21871    0.73626    -0.08591   1.00
C3       0.28300    0.74891    0.08304   1.00
C3       0.28695    0.75199    -0.08336   1.00
H1       0.18812    0.74010    0.02763   1.00
H1       0.19156    0.72919    -0.03306   1.00
C5       0.32201    0.75454    0.02165   1.00
C5       0.32243    0.75873    -0.01998   1.00
H1       0.18672    0.73915    0.09549   1.00
H1       0.19347    0.73022    -0.10091   1.00
H1       0.30755    0.75163    0.09948   1.00
H1       0.31188    0.75749    -0.09848   1.00
C6       0.35961    0.75490    0.04485   1.00
C6       0.35929    0.77075    -0.04119   1.00
H2       0.35865    0.73167    0.06655   1.00
H2       0.35200    0.79260    -0.06310   1.00
H2       0.38440    0.74609    0.02714   1.00
H2       0.37894    0.78694    -0.02228   1.00
C6       0.36864    0.79548    0.06394   1.00
C6       0.38192    0.73542    -0.05942   1.00
H2       0.34206    0.80725    0.07708   1.00
H2       0.36130    0.71581    -0.07383   1.00
C6       0.40171    0.79713    0.09541   1.00
C6       0.41535    0.74483    -0.08911   1.00
H2       0.37611    0.81577    0.04051   1.00
H2       0.39432    0.71844    -0.03546   1.00
C6       0.39054    0.77393    0.13265   1.00
C6       0.39924    0.76349    -0.12708   1.00
C6       0.44090    0.78142    0.07926   1.00
C6       0.44646    0.77222    -0.07107   1.00
C6       0.40792    0.84034    0.10755   1.00
C6       0.43581    0.70604    -0.10054   1.00
H2       0.36265    0.78391    0.14442   1.00
H2       0.37672    0.74514    -0.14020   1.00
H2       0.38806    0.74282    0.12670   1.00
H2       0.38653    0.79208    -0.12154   1.00
H2       0.41253    0.77748    0.15541   1.00
H2       0.42235    0.76743    -0.14863   1.00
H2       0.46437    0.78527    0.10045   1.00
H2       0.47099    0.77634    -0.09098   1.00
H2       0.43891    0.75035    0.07275   1.00
H2       0.43420    0.80092    -0.06494   1.00
H2       0.44904    0.79672    0.05255   1.00
H2       0.45770    0.76014    -0.04385   1.00
H2       0.38114    0.85275    0.11958   1.00
H2       0.41515    0.68575    -0.11383   1.00
H2       0.43063    0.84298    0.12975   1.00
H2       0.45928    0.71107    -0.12149   1.00
H2       0.41666    0.85811    0.08261   1.00
H2       0.44851    0.69183    -0.07502   1.00
C4       0.75010    0.25479    0.48025   1.00
C4       0.75137    0.25568    0.52191   1.00
C3       0.71453    0.25801    0.45897   1.00
C3       0.71782    0.26395    0.54504   1.00
C3       0.78548    0.25047    0.45854   1.00
C3       0.78733    0.24816    0.54170   1.00
C2       0.74770    0.25491    0.39595   1.00
C2       0.75346    0.25562    0.60622   1.00
C3       0.71330    0.25828    0.41811   1.00
C3       0.71871    0.26374    0.58591   1.00
C3       0.78300    0.25109    0.41696   1.00
C3       0.78695    0.24801    0.58336   1.00
H1       0.68812    0.25990    0.47237   1.00
H1       0.69156    0.27081    0.53306   1.00
C5       0.82201    0.24546    0.47835   1.00
C5       0.82243    0.24127    0.51998   1.00
H1       0.68672    0.26085    0.40451   1.00
H1       0.69347    0.26978    0.60091   1.00
H1       0.80755    0.24837    0.40052   1.00
H1       0.81188    0.24251    0.59848   1.00
C6       0.85961    0.24510    0.45515   1.00
C6       0.85929    0.22925    0.54119   1.00
H2       0.85865    0.26833    0.43345   1.00
H2       0.85200    0.20740    0.56310   1.00
H2       0.88440    0.25391    0.47286   1.00
H2       0.87894    0.21306    0.52228   1.00
C6       0.86864    0.20452    0.43606   1.00
C6       0.88192    0.26458    0.55942   1.00
H2       0.84206    0.19275    0.42292   1.00
H2       0.86130    0.28419    0.57383   1.00
C6       0.90171    0.20287    0.40459   1.00
C6       0.91535    0.25517    0.58911   1.00
H2       0.87611    0.18423    0.45949   1.00
H2       0.89432    0.28156    0.53546   1.00
C6       0.89054    0.22607    0.36735   1.00
C6       0.89924    0.23651    0.62708   1.00
C6       0.94090    0.21858    0.42074   1.00
C6       0.94646    0.22778    0.57107   1.00
C6       0.90792    0.15966    0.39245   1.00
C6       0.93581    0.29396    0.60054   1.00
H2       0.86265    0.21609    0.35558   1.00
H2       0.87672    0.25486    0.64020   1.00
H2       0.88806    0.25718    0.37330   1.00
H2       0.88653    0.20792    0.62154   1.00
H2       0.91253    0.22252    0.34459   1.00
H2       0.92235    0.23257    0.64863   1.00
H2       0.96437    0.21473    0.39955   1.00
H2       0.97099    0.22366    0.59098   1.00
H2       0.93891    0.24965    0.42725   1.00
H2       0.93420    0.19908    0.56494   1.00
H2       0.94904    0.20328    0.44745   1.00
H2       0.95770    0.23986    0.54385   1.00
H2       0.88114    0.14725    0.38042   1.00
H2       0.91515    0.31425    0.61383   1.00
H2       0.93063    0.15702    0.37025   1.00
H2       0.95928    0.28893    0.62149   1.00
H2       0.91666    0.14189    0.41739   1.00
H2       0.94851    0.30817    0.57502   1.00
C4       0.75479    0.48025    0.25010   1.00
C4       0.75568    0.52191    0.25137   1.00
C3       0.75801    0.45897    0.21453   1.00
C3       0.76395    0.54504    0.21782   1.00
C3       0.75047    0.45854    0.28548   1.00
C3       0.74816    0.54170    0.28733   1.00
C2       0.75491    0.39595    0.24770   1.00
C2       0.75562    0.60622    0.25346   1.00
C3       0.75828    0.41811    0.21330   1.00
C3       0.76374    0.58591    0.21871   1.00
C3       0.75109    0.41696    0.28300   1.00
C3       0.74801    0.58336    0.28695   1.00
H1       0.75990    0.47237    0.18812   1.00
H1       0.77081    0.53306    0.19156   1.00
C5       0.74546    0.47835    0.32201   1.00
C5       0.74127    0.51998    0.32243   1.00
H1       0.76085    0.40451    0.18672   1.00
H1       0.76978    0.60091    0.19347   1.00
H1       0.74837    0.40052    0.30755   1.00
H1       0.74251    0.59848    0.31188   1.00
C6       0.74510    0.45515    0.35961   1.00
C6       0.72925    0.54119    0.35929   1.00
H2       0.76833    0.43345    0.35865   1.00
H2       0.70740    0.56310    0.35200   1.00
H2       0.75391    0.47286    0.38440   1.00
H2       0.71306    0.52228    0.37894   1.00
C6       0.70452    0.43606    0.36864   1.00
C6       0.76458    0.55942    0.38192   1.00
H2       0.69275    0.42292    0.34206   1.00
H2       0.78419    0.57383    0.36130   1.00
C6       0.70287    0.40459    0.40171   1.00
C6       0.75517    0.58911    0.41535   1.00
H2       0.68423    0.45949    0.37611   1.00
H2       0.78156    0.53546    0.39432   1.00
C6       0.72607    0.36735    0.39054   1.00
C6       0.73651    0.62708    0.39924   1.00
C6       0.71858    0.42074    0.44090   1.00
C6       0.72778    0.57107    0.44646   1.00
C6       0.65966    0.39245    0.40792   1.00
C6       0.79396    0.60054    0.43581   1.00
H2       0.71609    0.35558    0.36265   1.00
H2       0.75486    0.64020    0.37672   1.00
H2       0.75718    0.37330    0.38806   1.00
H2       0.70792    0.62154    0.38653   1.00
H2       0.72252    0.34459    0.41253   1.00
H2       0.73257    0.64863    0.42235   1.00
H2       0.71473    0.39955    0.46437   1.00
H2       0.72366    0.59098    0.47099   1.00
H2       0.74965    0.42725    0.43891   1.00
H2       0.69908    0.56494    0.43420   1.00
H2       0.70328    0.44745    0.44904   1.00
H2       0.73986    0.54385    0.45770   1.00
H2       0.64725    0.38042    0.38114   1.00
H2       0.81425    0.61383    0.41515   1.00
H2       0.65702    0.37025    0.43063   1.00
H2       0.78893    0.62149    0.45928   1.00
H2       0.64189    0.41739    0.41666   1.00
H2       0.80817    0.57502    0.44851   1.00
C4       0.51975    0.25010    0.24521   1.00
C4       0.47809    0.25137    0.24432   1.00
C3       0.54103    0.21453    0.24199   1.00
C3       0.45496    0.21782    0.23605   1.00
C3       0.54146    0.28548    0.24953   1.00
C3       0.45830    0.28733    0.25184   1.00
C2       0.60405    0.24770    0.24509   1.00
C2       0.39378    0.25346    0.24438   1.00
C3       0.58189    0.21330    0.24172   1.00
C3       0.41409    0.21871    0.23626   1.00
C3       0.58304    0.28300    0.24891   1.00
C3       0.41664    0.28695    0.25199   1.00
H1       0.52763    0.18812    0.24010   1.00
H1       0.46694    0.19156    0.22919   1.00
C5       0.52165    0.32201    0.25454   1.00
C5       0.48002    0.32243    0.25873   1.00
H1       0.59549    0.18672    0.23915   1.00
H1       0.39909    0.19347    0.23022   1.00
H1       0.59948    0.30755    0.25163   1.00
H1       0.40152    0.31188    0.25749   1.00
C6       0.54485    0.35961    0.25490   1.00
C6       0.45881    0.35929    0.27075   1.00
H2       0.56655    0.35865    0.23167   1.00
H2       0.43690    0.35200    0.29260   1.00
H2       0.52714    0.38440    0.24609   1.00
H2       0.47772    0.37894    0.28694   1.00
C6       0.56394    0.36864    0.29548   1.00
C6       0.44058    0.38192    0.23542   1.00
H2       0.57708    0.34206    0.30725   1.00
H2       0.42617    0.36130    0.21581   1.00
C6       0.59541    0.40171    0.29713   1.00
C6       0.41089    0.41535    0.24483   1.00
H2       0.54051    0.37611    0.31577   1.00
H2       0.46454    0.39432    0.21844   1.00
C6       0.63265    0.39054    0.27393   1.00
C6       0.37292    0.39924    0.26349   1.00
C6       0.57926    0.44090    0.28142   1.00
C6       0.42893    0.44646    0.27222   1.00
C6       0.60755    0.40792    0.34034   1.00
C6       0.39946    0.43581    0.20604   1.00
H2       0.64442    0.36265    0.28391   1.00
H2       0.35980    0.37672    0.24514   1.00
H2       0.62670    0.38806    0.24282   1.00
H2       0.37846    0.38653    0.29208   1.00
H2       0.65541    0.41253    0.27748   1.00
H2       0.35137    0.42235    0.26743   1.00
H2       0.60045    0.46437    0.28527   1.00
H2       0.40902    0.47099    0.27634   1.00
H2       0.57275    0.43891    0.25035   1.00
H2       0.43506    0.43420    0.30092   1.00
H2       0.55255    0.44904    0.29672   1.00
H2       0.45615    0.45770    0.26014   1.00
H2       0.61958    0.38114    0.35275   1.00
H2       0.38617    0.41515    0.18575   1.00
H2       0.62975    0.43063    0.34298   1.00
H2       0.37851    0.45928    0.21107   1.00
H2       0.58261    0.41666    0.35811   1.00
H2       0.42498    0.44851    0.19183   1.00
C4       0.98025    0.25010    0.25479   1.00
C4       1.02191    0.25137    0.25568   1.00
C3       0.95897    0.21453    0.25801   1.00
C3       1.04504    0.21782    0.26395   1.00
C3       0.95854    0.28548    0.25047   1.00
C3       1.04170    0.28733    0.24816   1.00
C2       0.89595    0.24770    0.25491   1.00
C2       1.10622    0.25346    0.25562   1.00
C3       0.91811    0.21330    0.25828   1.00
C3       1.08591    0.21871    0.26374   1.00
C3       0.91696    0.28300    0.25109   1.00
C3       1.08336    0.28695    0.24801   1.00
H1       0.97237    0.18812    0.25990   1.00
H1       1.03306    0.19156    0.27081   1.00
C5       0.97835    0.32201    0.24546   1.00
C5       1.01998    0.32243    0.24127   1.00
H1       0.90451    0.18672    0.26085   1.00
H1       1.10091    0.19347    0.26978   1.00
H1       0.90052    0.30755    0.24837   1.00
H1       1.09848    0.31188    0.24251   1.00
C6       0.95515    0.35961    0.24510   1.00
C6       1.04119    0.35929    0.22925   1.00
H2       0.93345    0.35865    0.26833   1.00
H2       1.06310    0.35200    0.20740   1.00
H2       0.97286    0.38440    0.25391   1.00
H2       1.02228    0.37894    0.21306   1.00
C6       0.93606    0.36864    0.20452   1.00
C6       1.05942    0.38192    0.26458   1.00
H2       0.92292    0.34206    0.19275   1.00
H2       1.07383    0.36130    0.28419   1.00
C6       0.90459    0.40171    0.20287   1.00
C6       1.08911    0.41535    0.25517   1.00
H2       0.95949    0.37611    0.18423   1.00
H2       1.03546    0.39432    0.28156   1.00
C6       0.86735    0.39054    0.22607   1.00
C6       1.12708    0.39924    0.23651   1.00
C6       0.92074    0.44090    0.21858   1.00
C6       1.07107    0.44646    0.22778   1.00
C6       0.89245    0.40792    0.15966   1.00
C6       1.10054    0.43581    0.29396   1.00
H2       0.85558    0.36265    0.21609   1.00
H2       1.14020    0.37672    0.25486   1.00
H2       0.87330    0.38806    0.25718   1.00
H2       1.12154    0.38653    0.20792   1.00
H2       0.84459    0.41253    0.22252   1.00
H2       1.14863    0.42235    0.23257   1.00
H2       0.89955    0.46437    0.21473   1.00
H2       1.09098    0.47099    0.22366   1.00
H2       0.92725    0.43891    0.24965   1.00
H2       1.06494    0.43420    0.19908   1.00
H2       0.94745    0.44904    0.20328   1.00
H2       1.04385    0.45770    0.23986   1.00
H2       0.88042    0.38114    0.14725   1.00
H2       1.11383    0.41515    0.31425   1.00
H2       0.87025    0.43063    0.15702   1.00
H2       1.12149    0.45928    0.28893   1.00
H2       0.91739    0.41666    0.14189   1.00
H2       1.07502    0.44851    0.30817   1.00
C4       0.74521    0.01975    0.25010   1.00
C4       0.74432    -0.02191   0.25137   1.00
C3       0.74199    0.04103    0.21453   1.00
C3       0.73605    -0.04504   0.21782   1.00
C3       0.74953    0.04146    0.28548   1.00
C3       0.75184    -0.04170   0.28733   1.00
C2       0.74509    0.10405    0.24770   1.00
C2       0.74438    -0.10622   0.25346   1.00
C3       0.74172    0.08189    0.21330   1.00
C3       0.73626    -0.08591   0.21871   1.00
C3       0.74891    0.08304    0.28300   1.00
C3       0.75199    -0.08336   0.28695   1.00
H1       0.74010    0.02763    0.18812   1.00
H1       0.72919    -0.03306   0.19156   1.00
C5       0.75454    0.02165    0.32201   1.00
C5       0.75873    -0.01998   0.32243   1.00
H1       0.73915    0.09549    0.18672   1.00
H1       0.73022    -0.10091   0.19347   1.00
H1       0.75163    0.09948    0.30755   1.00
H1       0.75749    -0.09848   0.31188   1.00
C6       0.75490    0.04485    0.35961   1.00
C6       0.77075    -0.04119   0.35929   1.00
H2       0.73167    0.06655    0.35865   1.00
H2       0.79260    -0.06310   0.35200   1.00
H2       0.74609    0.02714    0.38440   1.00
H2       0.78694    -0.02228   0.37894   1.00
C6       0.79548    0.06394    0.36864   1.00
C6       0.73542    -0.05942   0.38192   1.00
H2       0.80725    0.07708    0.34206   1.00
H2       0.71581    -0.07383   0.36130   1.00
C6       0.79713    0.09541    0.40171   1.00
C6       0.74483    -0.08911   0.41535   1.00
H2       0.81577    0.04051    0.37611   1.00
H2       0.71844    -0.03546   0.39432   1.00
C6       0.77393    0.13265    0.39054   1.00
C6       0.76349    -0.12708   0.39924   1.00
C6       0.78142    0.07926    0.44090   1.00
C6       0.77222    -0.07107   0.44646   1.00
C6       0.84034    0.10755    0.40792   1.00
C6       0.70604    -0.10054   0.43581   1.00
H2       0.78391    0.14442    0.36265   1.00
H2       0.74514    -0.14020   0.37672   1.00
H2       0.74282    0.12670    0.38806   1.00
H2       0.79208    -0.12154   0.38653   1.00
H2       0.77748    0.15541    0.41253   1.00
H2       0.76743    -0.14863   0.42235   1.00
H2       0.78527    0.10045    0.46437   1.00
H2       0.77634    -0.09098   0.47099   1.00
H2       0.75035    0.07275    0.43891   1.00
H2       0.80092    -0.06494   0.43420   1.00
H2       0.79672    0.05255    0.44904   1.00
H2       0.76014    -0.04385   0.45770   1.00
H2       0.85275    0.11958    0.38114   1.00
H2       0.68575    -0.11383   0.41515   1.00
H2       0.84298    0.12975    0.43063   1.00
H2       0.71107    -0.12149   0.45928   1.00
H2       0.85811    0.08261    0.41666   1.00
H2       0.69183    -0.07502   0.44851   1.00
C4       0.75010    0.24521    0.01975   1.00
C4       0.75137    0.24432    -0.02191   1.00
C3       0.71453    0.24199    0.04103   1.00
C3       0.71782    0.23605    -0.04504   1.00
C3       0.78548    0.24953    0.04146   1.00
C3       0.78733    0.25184    -0.04170   1.00
C2       0.74770    0.24509    0.10405   1.00
C2       0.75346    0.24438    -0.10622   1.00
C3       0.71330    0.24172    0.08189   1.00
C3       0.71871    0.23626    -0.08591   1.00
C3       0.78300    0.24891    0.08304   1.00
C3       0.78695    0.25199    -0.08336   1.00
H1       0.68812    0.24010    0.02763   1.00
H1       0.69156    0.22919    -0.03306   1.00
C5       0.82201    0.25454    0.02165   1.00
C5       0.82243    0.25873    -0.01998   1.00
H1       0.68672    0.23915    0.09549   1.00
H1       0.69347    0.23022    -0.10091   1.00
H1       0.80755    0.25163    0.09948   1.00
H1       0.81188    0.25749    -0.09848   1.00
C6       0.85961    0.25490    0.04485   1.00
C6       0.85929    0.27075    -0.04119   1.00
H2       0.85865    0.23167    0.06655   1.00
H2       0.85200    0.29260    -0.06310   1.00
H2       0.88440    0.24609    0.02714   1.00
H2       0.87894    0.28694    -0.02228   1.00
C6       0.86864    0.29548    0.06394   1.00
C6       0.88192    0.23542    -0.05942   1.00
H2       0.84206    0.30725    0.07708   1.00
H2       0.86130    0.21581    -0.07383   1.00
C6       0.90171    0.29713    0.09541   1.00
C6       0.91535    0.24483    -0.08911   1.00
H2       0.87611    0.31577    0.04051   1.00
H2       0.89432    0.21844    -0.03546   1.00
C6       0.89054    0.27393    0.13265   1.00
C6       0.89924    0.26349    -0.12708   1.00
C6       0.94090    0.28142    0.07926   1.00
C6       0.94646    0.27222    -0.07107   1.00
C6       0.90792    0.34034    0.10755   1.00
C6       0.93581    0.20604    -0.10054   1.00
H2       0.86265    0.28391    0.14442   1.00
H2       0.87672    0.24514    -0.14020   1.00
H2       0.88806    0.24282    0.12670   1.00
H2       0.88653    0.29208    -0.12154   1.00
H2       0.91253    0.27748    0.15541   1.00
H2       0.92235    0.26743    -0.14863   1.00
H2       0.96437    0.28527    0.10045   1.00
H2       0.97099    0.27634    -0.09098   1.00
H2       0.93891    0.25035    0.07275   1.00
H2       0.93420    0.30092    -0.06494   1.00
H2       0.94904    0.29672    0.05255   1.00
H2       0.95770    0.26014    -0.04385   1.00
H2       0.88114    0.35275    0.11958   1.00
H2       0.91515    0.18575    -0.11383   1.00
H2       0.93063    0.34298    0.12975   1.00
H2       0.95928    0.21107    -0.12149   1.00
H2       0.91666    0.35811    0.08261   1.00
H2       0.94851    0.19183    -0.07502   1.00
C4       0.91510    0.91979    1.14525   1.00
C4       0.91637    0.92068    1.18691   1.00
C3       0.87953    0.92301    1.12397   1.00
C3       0.88282    0.92895    1.21004   1.00
C3       0.95048    0.91547    1.12354   1.00
C3       0.95233    0.91316    1.20670   1.00
C2       0.91270    0.91991    1.06095   1.00
C2       0.91846    0.92062    1.27122   1.00
C3       0.87830    0.92328    1.08311   1.00
C3       0.88371    0.92874    1.25091   1.00
C3       0.94800    0.91609    1.08196   1.00
C3       0.95195    0.91301    1.24836   1.00
H1       0.85312    0.92490    1.13737   1.00
H1       0.85656    0.93581    1.19806   1.00
C5       0.98701    0.91046    1.14335   1.00
C5       0.98743    0.90627    1.18498   1.00
H1       0.85172    0.92585    1.06951   1.00
H1       0.85847    0.93478    1.26591   1.00
H1       0.97255    0.91337    1.06552   1.00
H1       0.97688    0.90751    1.26348   1.00
C6       1.02461    0.91010    1.12015   1.00
C6       1.02429    0.89425    1.20619   1.00
H2       1.02365    0.93333    1.09845   1.00
H2       1.01700    0.87240    1.22810   1.00
H2       1.04940    0.91891    1.13786   1.00
H2       1.04394    0.87806    1.18728   1.00
C6       1.03364    0.86952    1.10106   1.00
C6       1.04692    0.92958    1.22442   1.00
H2       1.00706    0.85775    1.08792   1.00
H2       1.02630    0.94919    1.23883   1.00
C6       1.06671    0.86787    1.06959   1.00
C6       1.08035    0.92017    1.25411   1.00
H2       1.04111    0.84923    1.12449   1.00
H2       1.05932    0.94656    1.20046   1.00
C6       1.05554    0.89107    1.03235   1.00
C6       1.06424    0.90151    1.29208   1.00
C6       1.10590    0.88358    1.08574   1.00
C6       1.11146    0.89278    1.23607   1.00
C6       1.07292    0.82466    1.05745   1.00
C6       1.10081    0.95896    1.26554   1.00
H2       1.02765    0.88109    1.02058   1.00
H2       1.04172    0.91986    1.30520   1.00
H2       1.05306    0.92218    1.03830   1.00
H2       1.05153    0.87292    1.28654   1.00
H2       1.07753    0.88752    1.00959   1.00
H2       1.08735    0.89757    1.31363   1.00
H2       1.12937    0.87973    1.06455   1.00
H2       1.13599    0.88866    1.25598   1.00
H2       1.10391    0.91465    1.09225   1.00
H2       1.09920    0.86408    1.22994   1.00
H2       1.11404    0.86828    1.11245   1.00
H2       1.12270    0.90486    1.20885   1.00
H2       1.04614    0.81225    1.04542   1.00
H2       1.08015    0.97925    1.27883   1.00
H2       1.09563    0.82202    1.03525   1.00
H2       1.12428    0.95393    1.28649   1.00
H2       1.08166    0.80689    1.08239   1.00
H2       1.11351    0.97317    1.24002   1.00
C4       0.91979    1.14525    0.91510   1.00
C4       0.92068    1.18691    0.91637   1.00
C3       0.92301    1.12397    0.87953   1.00
C3       0.92895    1.21004    0.88282   1.00
C3       0.91547    1.12354    0.95048   1.00
C3       0.91316    1.20670    0.95233   1.00
C2       0.91991    1.06095    0.91270   1.00
C2       0.92062    1.27122    0.91846   1.00
C3       0.92328    1.08311    0.87830   1.00
C3       0.92874    1.25091    0.88371   1.00
C3       0.91609    1.08196    0.94800   1.00
C3       0.91301    1.24836    0.95195   1.00
H1       0.92490    1.13737    0.85312   1.00
H1       0.93581    1.19806    0.85656   1.00
C5       0.91046    1.14335    0.98701   1.00
C5       0.90627    1.18498    0.98743   1.00
H1       0.92585    1.06951    0.85172   1.00
H1       0.93478    1.26591    0.85847   1.00
H1       0.91337    1.06552    0.97255   1.00
H1       0.90751    1.26348    0.97688   1.00
C6       0.91010    1.12015    1.02461   1.00
C6       0.89425    1.20619    1.02429   1.00
H2       0.93333    1.09845    1.02365   1.00
H2       0.87240    1.22810    1.01700   1.00
H2       0.91891    1.13786    1.04940   1.00
H2       0.87806    1.18728    1.04394   1.00
C6       0.86952    1.10106    1.03364   1.00
C6       0.92958    1.22442    1.04692   1.00
H2       0.85775    1.08792    1.00706   1.00
H2       0.94919    1.23883    1.02630   1.00
C6       0.86787    1.06959    1.06671   1.00
C6       0.92017    1.25411    1.08035   1.00
H2       0.84923    1.12449    1.04111   1.00
H2       0.94656    1.20046    1.05932   1.00
C6       0.89107    1.03235    1.05554   1.00
C6       0.90151    1.29208    1.06424   1.00
C6       0.88358    1.08574    1.10590   1.00
C6       0.89278    1.23607    1.11146   1.00
C6       0.82466    1.05745    1.07292   1.00
C6       0.95896    1.26554    1.10081   1.00
H2       0.88109    1.02058    1.02765   1.00
H2       0.91986    1.30520    1.04172   1.00
H2       0.92218    1.03830    1.05306   1.00
H2       0.87292    1.28654    1.05153   1.00
H2       0.88752    1.00959    1.07753   1.00
H2       0.89757    1.31363    1.08735   1.00
H2       0.87973    1.06455    1.12937   1.00
H2       0.88866    1.25598    1.13599   1.00
H2       0.91465    1.09225    1.10391   1.00
H2       0.86408    1.22994    1.09920   1.00
H2       0.86828    1.11245    1.11404   1.00
H2       0.90486    1.20885    1.12270   1.00
H2       0.81225    1.04542    1.04614   1.00
H2       0.97925    1.27883    1.08015   1.00
H2       0.82202    1.03525    1.09563   1.00
H2       0.95393    1.28649    1.12428   1.00
H2       0.80689    1.08239    1.08166   1.00
H2       0.97317    1.24002    1.11351   1.00
C4       0.68475    0.91510    0.91021   1.00
C4       0.64309    0.91637    0.90932   1.00
C3       0.70603    0.87953    0.90699   1.00
C3       0.61996    0.88282    0.90105   1.00
C3       0.70646    0.95048    0.91453   1.00
C3       0.62330    0.95233    0.91684   1.00
C2       0.76905    0.91270    0.91009   1.00
C2       0.55878    0.91846    0.90938   1.00
C3       0.74689    0.87830    0.90672   1.00
C3       0.57909    0.88371    0.90126   1.00
C3       0.74804    0.94800    0.91391   1.00
C3       0.58164    0.95195    0.91699   1.00
H1       0.69263    0.85312    0.90510   1.00
H1       0.63194    0.85656    0.89419   1.00
C5       0.68665    0.98701    0.91954   1.00
C5       0.64502    0.98743    0.92373   1.00
H1       0.76049    0.85172    0.90415   1.00
H1       0.56409    0.85847    0.89522   1.00
H1       0.76448    0.97255    0.91663   1.00
H1       0.56652    0.97688    0.92249   1.00
C6       0.70985    1.02461    0.91990   1.00
C6       0.62381    1.02429    0.93575   1.00
H2       0.73155    1.02365    0.89667   1.00
H2       0.60190    1.01700    0.95760   1.00
H2       0.69214    1.04940    0.91109   1.00
H2       0.64272    1.04394    0.95194   1.00
C6       0.72894    1.03364    0.96048   1.00
C6       0.60558    1.04692    0.90042   1.00
H2       0.74208    1.00706    0.97225   1.00
H2       0.59117    1.02630    0.88081   1.00
C6       0.76041    1.06671    0.96213   1.00
C6       0.57589    1.08035    0.90983   1.00
H2       0.70551    1.04111    0.98077   1.00
H2       0.62954    1.05932    0.88344   1.00
C6       0.79765    1.05554    0.93893   1.00
C6       0.53792    1.06424    0.92849   1.00
C6       0.74426    1.10590    0.94642   1.00
C6       0.59393    1.11146    0.93722   1.00
C6       0.77255    1.07292    1.00534   1.00
C6       0.56446    1.10081    0.87104   1.00
H2       0.80942    1.02765    0.94891   1.00
H2       0.52480    1.04172    0.91014   1.00
H2       0.79170    1.05306    0.90782   1.00
H2       0.54346    1.05153    0.95708   1.00
H2       0.82041    1.07753    0.94248   1.00
H2       0.51637    1.08735    0.93243   1.00
H2       0.76545    1.12937    0.95027   1.00
H2       0.57402    1.13599    0.94134   1.00
H2       0.73775    1.10391    0.91535   1.00
H2       0.60006    1.09920    0.96592   1.00
H2       0.71755    1.11404    0.96172   1.00
H2       0.62115    1.12270    0.92514   1.00
H2       0.78458    1.04614    1.01775   1.00
H2       0.55117    1.08015    0.85075   1.00
H2       0.79475    1.09563    1.00798   1.00
H2       0.54351    1.12428    0.87607   1.00
H2       0.74761    1.08166    1.02311   1.00
H2       0.58998    1.11351    0.85683   1.00
C4       1.14525    0.91510    0.91979   1.00
C4       1.18691    0.91637    0.92068   1.00
C3       1.12397    0.87953    0.92301   1.00
C3       1.21004    0.88282    0.92895   1.00
C3       1.12354    0.95048    0.91547   1.00
C3       1.20670    0.95233    0.91316   1.00
C2       1.06095    0.91270    0.91991   1.00
C2       1.27122    0.91846    0.92062   1.00
C3       1.08311    0.87830    0.92328   1.00
C3       1.25091    0.88371    0.92874   1.00
C3       1.08196    0.94800    0.91609   1.00
C3       1.24836    0.95195    0.91301   1.00
H1       1.13737    0.85312    0.92490   1.00
H1       1.19806    0.85656    0.93581   1.00
C5       1.14335    0.98701    0.91046   1.00
C5       1.18498    0.98743    0.90627   1.00
H1       1.06951    0.85172    0.92585   1.00
H1       1.26591    0.85847    0.93478   1.00
H1       1.06552    0.97255    0.91337   1.00
H1       1.26348    0.97688    0.90751   1.00
C6       1.12015    1.02461    0.91010   1.00
C6       1.20619    1.02429    0.89425   1.00
H2       1.09845    1.02365    0.93333   1.00
H2       1.22810    1.01700    0.87240   1.00
H2       1.13786    1.04940    0.91891   1.00
H2       1.18728    1.04394    0.87806   1.00
C6       1.10106    1.03364    0.86952   1.00
C6       1.22442    1.04692    0.92958   1.00
H2       1.08792    1.00706    0.85775   1.00
H2       1.23883    1.02630    0.94919   1.00
C6       1.06959    1.06671    0.86787   1.00
C6       1.25411    1.08035    0.92017   1.00
H2       1.12449    1.04111    0.84923   1.00
H2       1.20046    1.05932    0.94656   1.00
C6       1.03235    1.05554    0.89107   1.00
C6       1.29208    1.06424    0.90151   1.00
C6       1.08574    1.10590    0.88358   1.00
C6       1.23607    1.11146    0.89278   1.00
C6       1.05745    1.07292    0.82466   1.00
C6       1.26554    1.10081    0.95896   1.00
H2       1.02058    1.02765    0.88109   1.00
H2       1.30520    1.04172    0.91986   1.00
H2       1.03830    1.05306    0.92218   1.00
H2       1.28654    1.05153    0.87292   1.00
H2       1.00959    1.07753    0.88752   1.00
H2       1.31363    1.08735    0.89757   1.00
H2       1.06455    1.12937    0.87973   1.00
H2       1.25598    1.13599    0.88866   1.00
H2       1.09225    1.10391    0.91465   1.00
H2       1.22994    1.09920    0.86408   1.00
H2       1.11245    1.11404    0.86828   1.00
H2       1.20885    1.12270    0.90486   1.00
H2       1.04542    1.04614    0.81225   1.00
H2       1.27883    1.08015    0.97925   1.00
H2       1.03525    1.09563    0.82202   1.00
H2       1.28649    1.12428    0.95393   1.00
H2       1.08239    1.08166    0.80689   1.00
H2       1.24002    1.11351    0.97317   1.00
C4       0.91021    0.68475    0.91510   1.00
C4       0.90932    0.64309    0.91637   1.00
C3       0.90699    0.70603    0.87953   1.00
C3       0.90105    0.61996    0.88282   1.00
C3       0.91453    0.70646    0.95048   1.00
C3       0.91684    0.62330    0.95233   1.00
C2       0.91009    0.76905    0.91270   1.00
C2       0.90938    0.55878    0.91846   1.00
C3       0.90672    0.74689    0.87830   1.00
C3       0.90126    0.57909    0.88371   1.00
C3       0.91391    0.74804    0.94800   1.00
C3       0.91699    0.58164    0.95195   1.00
H1       0.90510    0.69263    0.85312   1.00
H1       0.89419    0.63194    0.85656   1.00
C5       0.91954    0.68665    0.98701   1.00
C5       0.92373    0.64502    0.98743   1.00
H1       0.90415    0.76049    0.85172   1.00
H1       0.89522    0.56409    0.85847   1.00
H1       0.91663    0.76448    0.97255   1.00
H1       0.92249    0.56652    0.97688   1.00
C6       0.91990    0.70985    1.02461   1.00
C6       0.93575    0.62381    1.02429   1.00
H2       0.89667    0.73155    1.02365   1.00
H2       0.95760    0.60190    1.01700   1.00
H2       0.91109    0.69214    1.04940   1.00
H2       0.95194    0.64272    1.04394   1.00
C6       0.96048    0.72894    1.03364   1.00
C6       0.90042    0.60558    1.04692   1.00
H2       0.97225    0.74208    1.00706   1.00
H2       0.88081    0.59117    1.02630   1.00
C6       0.96213    0.76041    1.06671   1.00
C6       0.90983    0.57589    1.08035   1.00
H2       0.98077    0.70551    1.04111   1.00
H2       0.88344    0.62954    1.05932   1.00
C6       0.93893    0.79765    1.05554   1.00
C6       0.92849    0.53792    1.06424   1.00
C6       0.94642    0.74426    1.10590   1.00
C6       0.93722    0.59393    1.11146   1.00
C6       1.00534    0.77255    1.07292   1.00
C6       0.87104    0.56446    1.10081   1.00
H2       0.94891    0.80942    1.02765   1.00
H2       0.91014    0.52480    1.04172   1.00
H2       0.90782    0.79170    1.05306   1.00
H2       0.95708    0.54346    1.05153   1.00
H2       0.94248    0.82041    1.07753   1.00
H2       0.93243    0.51637    1.08735   1.00
H2       0.95027    0.76545    1.12937   1.00
H2       0.94134    0.57402    1.13599   1.00
H2       0.91535    0.73775    1.10391   1.00
H2       0.96592    0.60006    1.09920   1.00
H2       0.96172    0.71755    1.11404   1.00
H2       0.92514    0.62115    1.12270   1.00
H2       1.01775    0.78458    1.04614   1.00
H2       0.85075    0.55117    1.08015   1.00
H2       1.00798    0.79475    1.09563   1.00
H2       0.87607    0.54351    1.12428   1.00
H2       1.02311    0.74761    1.08166   1.00
H2       0.85683    0.58998    1.11351   1.00
C4       0.91510    0.91021    0.68475   1.00
C4       0.91637    0.90932    0.64309   1.00
C3       0.87953    0.90699    0.70603   1.00
C3       0.88282    0.90105    0.61996   1.00
C3       0.95048    0.91453    0.70646   1.00
C3       0.95233    0.91684    0.62330   1.00
C2       0.91270    0.91009    0.76905   1.00
C2       0.91846    0.90938    0.55878   1.00
C3       0.87830    0.90672    0.74689   1.00
C3       0.88371    0.90126    0.57909   1.00
C3       0.94800    0.91391    0.74804   1.00
C3       0.95195    0.91699    0.58164   1.00
H1       0.85312    0.90510    0.69263   1.00
H1       0.85656    0.89419    0.63194   1.00
C5       0.98701    0.91954    0.68665   1.00
C5       0.98743    0.92373    0.64502   1.00
H1       0.85172    0.90415    0.76049   1.00
H1       0.85847    0.89522    0.56409   1.00
H1       0.97255    0.91663    0.76448   1.00
H1       0.97688    0.92249    0.56652   1.00
C6       1.02461    0.91990    0.70985   1.00
C6       1.02429    0.93575    0.62381   1.00
H2       1.02365    0.89667    0.73155   1.00
H2       1.01700    0.95760    0.60190   1.00
H2       1.04940    0.91109    0.69214   1.00
H2       1.04394    0.95194    0.64272   1.00
C6       1.03364    0.96048    0.72894   1.00
C6       1.04692    0.90042    0.60558   1.00
H2       1.00706    0.97225    0.74208   1.00
H2       1.02630    0.88081    0.59117   1.00
C6       1.06671    0.96213    0.76041   1.00
C6       1.08035    0.90983    0.57589   1.00
H2       1.04111    0.98077    0.70551   1.00
H2       1.05932    0.88344    0.62954   1.00
C6       1.05554    0.93893    0.79765   1.00
C6       1.06424    0.92849    0.53792   1.00
C6       1.10590    0.94642    0.74426   1.00
C6       1.11146    0.93722    0.59393   1.00
C6       1.07292    1.00534    0.77255   1.00
C6       1.10081    0.87104    0.56446   1.00
H2       1.02765    0.94891    0.80942   1.00
H2       1.04172    0.91014    0.52480   1.00
H2       1.05306    0.90782    0.79170   1.00
H2       1.05153    0.95708    0.54346   1.00
H2       1.07753    0.94248    0.82041   1.00
H2       1.08735    0.93243    0.51637   1.00
H2       1.12937    0.95027    0.76545   1.00
H2       1.13599    0.94134    0.57402   1.00
H2       1.10391    0.91535    0.73775   1.00
H2       1.09920    0.96592    0.60006   1.00
H2       1.11404    0.96172    0.71755   1.00
H2       1.12270    0.92514    0.62115   1.00
H2       1.04614    1.01775    0.78458   1.00
H2       1.08015    0.85075    0.55117   1.00
H2       1.09563    1.00798    0.79475   1.00
H2       1.12428    0.87607    0.54351   1.00
H2       1.08166    1.02311    0.74761   1.00
H2       1.11351    0.85683    0.58998   1.00
C4       0.41510    0.41979    1.14525   1.00
C4       0.41637    0.42068    1.18691   1.00
C3       0.37953    0.42301    1.12397   1.00
C3       0.38282    0.42895    1.21004   1.00
C3       0.45048    0.41547    1.12354   1.00
C3       0.45233    0.41316    1.20670   1.00
C2       0.41270    0.41991    1.06095   1.00
C2       0.41846    0.42062    1.27122   1.00
C3       0.37830    0.42328    1.08311   1.00
C3       0.38371    0.42874    1.25091   1.00
C3       0.44800    0.41609    1.08196   1.00
C3       0.45195    0.41301    1.24836   1.00
H1       0.35312    0.42490    1.13737   1.00
H1       0.35656    0.43581    1.19806   1.00
C5       0.48701    0.41046    1.14335   1.00
C5       0.48743    0.40627    1.18498   1.00
H1       0.35172    0.42585    1.06951   1.00
H1       0.35847    0.43478    1.26591   1.00
H1       0.47255    0.41337    1.06552   1.00
H1       0.47688    0.40751    1.26348   1.00
C6       0.52461    0.41010    1.12015   1.00
C6       0.52429    0.39425    1.20619   1.00
H2       0.52365    0.43333    1.09845   1.00
H2       0.51700    0.37240    1.22810   1.00
H2       0.54940    0.41891    1.13786   1.00
H2       0.54394    0.37806    1.18728   1.00
C6       0.53364    0.36952    1.10106   1.00
C6       0.54692    0.42958    1.22442   1.00
H2       0.50706    0.35775    1.08792   1.00
H2       0.52630    0.44919    1.23883   1.00
C6       0.56671    0.36787    1.06959   1.00
C6       0.58035    0.42017    1.25411   1.00
H2       0.54111    0.34923    1.12449   1.00
H2       0.55932    0.44656    1.20046   1.00
C6       0.55554    0.39107    1.03235   1.00
C6       0.56424    0.40151    1.29208   1.00
C6       0.60590    0.38358    1.08574   1.00
C6       0.61146    0.39278    1.23607   1.00
C6       0.57292    0.32466    1.05745   1.00
C6       0.60081    0.45896    1.26554   1.00
H2       0.52765    0.38109    1.02058   1.00
H2       0.54172    0.41986    1.30520   1.00
H2       0.55306    0.42218    1.03830   1.00
H2       0.55153    0.37292    1.28654   1.00
H2       0.57753    0.38752    1.00959   1.00
H2       0.58735    0.39757    1.31363   1.00
H2       0.62937    0.37973    1.06455   1.00
H2       0.63599    0.38866    1.25598   1.00
H2       0.60391    0.41465    1.09225   1.00
H2       0.59920    0.36408    1.22994   1.00
H2       0.61404    0.36828    1.11245   1.00
H2       0.62270    0.40486    1.20885   1.00
H2       0.54614    0.31225    1.04542   1.00
H2       0.58015    0.47925    1.27883   1.00
H2       0.59563    0.32202    1.03525   1.00
H2       0.62428    0.45393    1.28649   1.00
H2       0.58166    0.30689    1.08239   1.00
H2       0.61351    0.47317    1.24002   1.00
C4       0.41979    0.64525    0.91510   1.00
C4       0.42068    0.68691    0.91637   1.00
C3       0.42301    0.62397    0.87953   1.00
C3       0.42895    0.71004    0.88282   1.00
C3       0.41547    0.62354    0.95048   1.00
C3       0.41316    0.70670    0.95233   1.00
C2       0.41991    0.56095    0.91270   1.00
C2       0.42062    0.77122    0.91846   1.00
C3       0.42328    0.58311    0.87830   1.00
C3       0.42874    0.75091    0.88371   1.00
C3       0.41609    0.58196    0.94800   1.00
C3       0.41301    0.74836    0.95195   1.00
H1       0.42490    0.63737    0.85312   1.00
H1       0.43581    0.69806    0.85656   1.00
C5       0.41046    0.64335    0.98701   1.00
C5       0.40627    0.68498    0.98743   1.00
H1       0.42585    0.56951    0.85172   1.00
H1       0.43478    0.76591    0.85847   1.00
H1       0.41337    0.56552    0.97255   1.00
H1       0.40751    0.76348    0.97688   1.00
C6       0.41010    0.62015    1.02461   1.00
C6       0.39425    0.70619    1.02429   1.00
H2       0.43333    0.59845    1.02365   1.00
H2       0.37240    0.72810    1.01700   1.00
H2       0.41891    0.63786    1.04940   1.00
H2       0.37806    0.68728    1.04394   1.00
C6       0.36952    0.60106    1.03364   1.00
C6       0.42958    0.72442    1.04692   1.00
H2       0.35775    0.58792    1.00706   1.00
H2       0.44919    0.73883    1.02630   1.00
C6       0.36787    0.56959    1.06671   1.00
C6       0.42017    0.75411    1.08035   1.00
H2       0.34923    0.62449    1.04111   1.00
H2       0.44656    0.70046    1.05932   1.00
C6       0.39107    0.53235    1.05554   1.00
C6       0.40151    0.79208    1.06424   1.00
C6       0.38358    0.58574    1.10590   1.00
C6       0.39278    0.73607    1.11146   1.00
C6       0.32466    0.55745    1.07292   1.00
C6       0.45896    0.76554    1.10081   1.00
H2       0.38109    0.52058    1.02765   1.00
H2       0.41986    0.80520    1.04172   1.00
H2       0.42218    0.53830    1.05306   1.00
H2       0.37292    0.78654    1.05153   1.00
H2       0.38752    0.50959    1.07753   1.00
H2       0.39757    0.81363    1.08735   1.00
H2       0.37973    0.56455    1.12937   1.00
H2       0.38866    0.75598    1.13599   1.00
H2       0.41465    0.59225    1.10391   1.00
H2       0.36408    0.72994    1.09920   1.00
H2       0.36828    0.61245    1.11404   1.00
H2       0.40486    0.70885    1.12270   1.00
H2       0.31225    0.54542    1.04614   1.00
H2       0.47925    0.77883    1.08015   1.00
H2       0.32202    0.53525    1.09563   1.00
H2       0.45393    0.78649    1.12428   1.00
H2       0.30689    0.58239    1.08166   1.00
H2       0.47317    0.74002    1.11351   1.00
C4       0.18475    0.41510    0.91021   1.00
C4       0.14309    0.41637    0.90932   1.00
C3       0.20603    0.37953    0.90699   1.00
C3       0.11996    0.38282    0.90105   1.00
C3       0.20646    0.45048    0.91453   1.00
C3       0.12330    0.45233    0.91684   1.00
C2       0.26905    0.41270    0.91009   1.00
C2       0.05878    0.41846    0.90938   1.00
C3       0.24689    0.37830    0.90672   1.00
C3       0.07909    0.38371    0.90126   1.00
C3       0.24804    0.44800    0.91391   1.00
C3       0.08164    0.45195    0.91699   1.00
H1       0.19263    0.35312    0.90510   1.00
H1       0.13194    0.35656    0.89419   1.00
C5       0.18665    0.48701    0.91954   1.00
C5       0.14502    0.48743    0.92373   1.00
H1       0.26049    0.35172    0.90415   1.00
H1       0.06409    0.35847    0.89522   1.00
H1       0.26448    0.47255    0.91663   1.00
H1       0.06652    0.47688    0.92249   1.00
C6       0.20985    0.52461    0.91990   1.00
C6       0.12381    0.52429    0.93575   1.00
H2       0.23155    0.52365    0.89667   1.00
H2       0.10190    0.51700    0.95760   1.00
H2       0.19214    0.54940    0.91109   1.00
H2       0.14272    0.54394    0.95194   1.00
C6       0.22894    0.53364    0.96048   1.00
C6       0.10558    0.54692    0.90042   1.00
H2       0.24208    0.50706    0.97225   1.00
H2       0.09117    0.52630    0.88081   1.00
C6       0.26041    0.56671    0.96213   1.00
C6       0.07589    0.58035    0.90983   1.00
H2       0.20551    0.54111    0.98077   1.00
H2       0.12954    0.55932    0.88344   1.00
C6       0.29765    0.55554    0.93893   1.00
C6       0.03792    0.56424    0.92849   1.00
C6       0.24426    0.60590    0.94642   1.00
C6       0.09393    0.61146    0.93722   1.00
C6       0.27255    0.57292    1.00534   1.00
C6       0.06446    0.60081    0.87104   1.00
H2       0.30942    0.52765    0.94891   1.00
H2       0.02480    0.54172    0.91014   1.00
H2       0.29170    0.55306    0.90782   1.00
H2       0.04346    0.55153    0.95708   1.00
H2       0.32041    0.57753    0.94248   1.00
H2       0.01637    0.58735    0.93243   1.00
H2       0.26545    0.62937    0.95027   1.00
H2       0.07402    0.63599    0.94134   1.00
H2       0.23775    0.60391    0.91535   1.00
H2       0.10006    0.59920    0.96592   1.00
H2       0.21755    0.61404    0.96172   1.00
H2       0.12115    0.62270    0.92514   1.00
H2       0.28458    0.54614    1.01775   1.00
H2       0.05117    0.58015    0.85075   1.00
H2       0.29475    0.59563    1.00798   1.00
H2       0.04351    0.62428    0.87607   1.00
H2       0.24761    0.58166    1.02311   1.00
H2       0.08998    0.61351    0.85683   1.00
C4       0.64525    0.41510    0.91979   1.00
C4       0.68691    0.41637    0.92068   1.00
C3       0.62397    0.37953    0.92301   1.00
C3       0.71004    0.38282    0.92895   1.00
C3       0.62354    0.45048    0.91547   1.00
C3       0.70670    0.45233    0.91316   1.00
C2       0.56095    0.41270    0.91991   1.00
C2       0.77122    0.41846    0.92062   1.00
C3       0.58311    0.37830    0.92328   1.00
C3       0.75091    0.38371    0.92874   1.00
C3       0.58196    0.44800    0.91609   1.00
C3       0.74836    0.45195    0.91301   1.00
H1       0.63737    0.35312    0.92490   1.00
H1       0.69806    0.35656    0.93581   1.00
C5       0.64335    0.48701    0.91046   1.00
C5       0.68498    0.48743    0.90627   1.00
H1       0.56951    0.35172    0.92585   1.00
H1       0.76591    0.35847    0.93478   1.00
H1       0.56552    0.47255    0.91337   1.00
H1       0.76348    0.47688    0.90751   1.00
C6       0.62015    0.52461    0.91010   1.00
C6       0.70619    0.52429    0.89425   1.00
H2       0.59845    0.52365    0.93333   1.00
H2       0.72810    0.51700    0.87240   1.00
H2       0.63786    0.54940    0.91891   1.00
H2       0.68728    0.54394    0.87806   1.00
C6       0.60106    0.53364    0.86952   1.00
C6       0.72442    0.54692    0.92958   1.00
H2       0.58792    0.50706    0.85775   1.00
H2       0.73883    0.52630    0.94919   1.00
C6       0.56959    0.56671    0.86787   1.00
C6       0.75411    0.58035    0.92017   1.00
H2       0.62449    0.54111    0.84923   1.00
H2       0.70046    0.55932    0.94656   1.00
C6       0.53235    0.55554    0.89107   1.00
C6       0.79208    0.56424    0.90151   1.00
C6       0.58574    0.60590    0.88358   1.00
C6       0.73607    0.61146    0.89278   1.00
C6       0.55745    0.57292    0.82466   1.00
C6       0.76554    0.60081    0.95896   1.00
H2       0.52058    0.52765    0.88109   1.00
H2       0.80520    0.54172    0.91986   1.00
H2       0.53830    0.55306    0.92218   1.00
H2       0.78654    0.55153    0.87292   1.00
H2       0.50959    0.57753    0.88752   1.00
H2       0.81363    0.58735    0.89757   1.00
H2       0.56455    0.62937    0.87973   1.00
H2       0.75598    0.63599    0.88866   1.00
H2       0.59225    0.60391    0.91465   1.00
H2       0.72994    0.59920    0.86408   1.00
H2       0.61245    0.61404    0.86828   1.00
H2       0.70885    0.62270    0.90486   1.00
H2       0.54542    0.54614    0.81225   1.00
H2       0.77883    0.58015    0.97925   1.00
H2       0.53525    0.59563    0.82202   1.00
H2       0.78649    0.62428    0.95393   1.00
H2       0.58239    0.58166    0.80689   1.00
H2       0.74002    0.61351    0.97317   1.00
C4       0.41021    0.18475    0.91510   1.00
C4       0.40932    0.14309    0.91637   1.00
C3       0.40699    0.20603    0.87953   1.00
C3       0.40105    0.11996    0.88282   1.00
C3       0.41453    0.20646    0.95048   1.00
C3       0.41684    0.12330    0.95233   1.00
C2       0.41009    0.26905    0.91270   1.00
C2       0.40938    0.05878    0.91846   1.00
C3       0.40672    0.24689    0.87830   1.00
C3       0.40126    0.07909    0.88371   1.00
C3       0.41391    0.24804    0.94800   1.00
C3       0.41699    0.08164    0.95195   1.00
H1       0.40510    0.19263    0.85312   1.00
H1       0.39419    0.13194    0.85656   1.00
C5       0.41954    0.18665    0.98701   1.00
C5       0.42373    0.14502    0.98743   1.00
H1       0.40415    0.26049    0.85172   1.00
H1       0.39522    0.06409    0.85847   1.00
H1       0.41663    0.26448    0.97255   1.00
H1       0.42249    0.06652    0.97688   1.00
C6       0.41990    0.20985    1.02461   1.00
C6       0.43575    0.12381    1.02429   1.00
H2       0.39667    0.23155    1.02365   1.00
H2       0.45760    0.10190    1.01700   1.00
H2       0.41109    0.19214    1.04940   1.00
H2       0.45194    0.14272    1.04394   1.00
C6       0.46048    0.22894    1.03364   1.00
C6       0.40042    0.10558    1.04692   1.00
H2       0.47225    0.24208    1.00706   1.00
H2       0.38081    0.09117    1.02630   1.00
C6       0.46213    0.26041    1.06671   1.00
C6       0.40983    0.07589    1.08035   1.00
H2       0.48077    0.20551    1.04111   1.00
H2       0.38344    0.12954    1.05932   1.00
C6       0.43893    0.29765    1.05554   1.00
C6       0.42849    0.03792    1.06424   1.00
C6       0.44642    0.24426    1.10590   1.00
C6       0.43722    0.09393    1.11146   1.00
C6       0.50534    0.27255    1.07292   1.00
C6       0.37104    0.06446    1.10081   1.00
H2       0.44891    0.30942    1.02765   1.00
H2       0.41014    0.02480    1.04172   1.00
H2       0.40782    0.29170    1.05306   1.00
H2       0.45708    0.04346    1.05153   1.00
H2       0.44248    0.32041    1.07753   1.00
H2       0.43243    0.01637    1.08735   1.00
H2       0.45027    0.26545    1.12937   1.00
H2       0.44134    0.07402    1.13599   1.00
H2       0.41535    0.23775    1.10391   1.00
H2       0.46592    0.10006    1.09920   1.00
H2       0.46172    0.21755    1.11404   1.00
H2       0.42514    0.12115    1.12270   1.00
H2       0.51775    0.28458    1.04614   1.00
H2       0.35075    0.05117    1.08015   1.00
H2       0.50798    0.29475    1.09563   1.00
H2       0.37607    0.04351    1.12428   1.00
H2       0.52311    0.24761    1.08166   1.00
H2       0.35683    0.08998    1.11351   1.00
C4       0.41510    0.41021    0.68475   1.00
C4       0.41637    0.40932    0.64309   1.00
C3       0.37953    0.40699    0.70603   1.00
C3       0.38282    0.40105    0.61996   1.00
C3       0.45048    0.41453    0.70646   1.00
C3       0.45233    0.41684    0.62330   1.00
C2       0.41270    0.41009    0.76905   1.00
C2       0.41846    0.40938    0.55878   1.00
C3       0.37830    0.40672    0.74689   1.00
C3       0.38371    0.40126    0.57909   1.00
C3       0.44800    0.41391    0.74804   1.00
C3       0.45195    0.41699    0.58164   1.00
H1       0.35312    0.40510    0.69263   1.00
H1       0.35656    0.39419    0.63194   1.00
C5       0.48701    0.41954    0.68665   1.00
C5       0.48743    0.42373    0.64502   1.00
H1       0.35172    0.40415    0.76049   1.00
H1       0.35847    0.39522    0.56409   1.00
H1       0.47255    0.41663    0.76448   1.00
H1       0.47688    0.42249    0.56652   1.00
C6       0.52461    0.41990    0.70985   1.00
C6       0.52429    0.43575    0.62381   1.00
H2       0.52365    0.39667    0.73155   1.00
H2       0.51700    0.45760    0.60190   1.00
H2       0.54940    0.41109    0.69214   1.00
H2       0.54394    0.45194    0.64272   1.00
C6       0.53364    0.46048    0.72894   1.00
C6       0.54692    0.40042    0.60558   1.00
H2       0.50706    0.47225    0.74208   1.00
H2       0.52630    0.38081    0.59117   1.00
C6       0.56671    0.46213    0.76041   1.00
C6       0.58035    0.40983    0.57589   1.00
H2       0.54111    0.48077    0.70551   1.00
H2       0.55932    0.38344    0.62954   1.00
C6       0.55554    0.43893    0.79765   1.00
C6       0.56424    0.42849    0.53792   1.00
C6       0.60590    0.44642    0.74426   1.00
C6       0.61146    0.43722    0.59393   1.00
C6       0.57292    0.50534    0.77255   1.00
C6       0.60081    0.37104    0.56446   1.00
H2       0.52765    0.44891    0.80942   1.00
H2       0.54172    0.41014    0.52480   1.00
H2       0.55306    0.40782    0.79170   1.00
H2       0.55153    0.45708    0.54346   1.00
H2       0.57753    0.44248    0.82041   1.00
H2       0.58735    0.43243    0.51637   1.00
H2       0.62937    0.45027    0.76545   1.00
H2       0.63599    0.44134    0.57402   1.00
H2       0.60391    0.41535    0.73775   1.00
H2       0.59920    0.46592    0.60006   1.00
H2       0.61404    0.46172    0.71755   1.00
H2       0.62270    0.42514    0.62115   1.00
H2       0.54614    0.51775    0.78458   1.00
H2       0.58015    0.35075    0.55117   1.00
H2       0.59563    0.50798    0.79475   1.00
H2       0.62428    0.37607    0.54351   1.00
H2       0.58166    0.52311    0.74761   1.00
H2       0.61351    0.35683    0.58998   1.00
C4       0.41510    0.91979    0.64525   1.00
C4       0.41637    0.92068    0.68691   1.00
C3       0.37953    0.92301    0.62397   1.00
C3       0.38282    0.92895    0.71004   1.00
C3       0.45048    0.91547    0.62354   1.00
C3       0.45233    0.91316    0.70670   1.00
C2       0.41270    0.91991    0.56095   1.00
C2       0.41846    0.92062    0.77122   1.00
C3       0.37830    0.92328    0.58311   1.00
C3       0.38371    0.92874    0.75091   1.00
C3       0.44800    0.91609    0.58196   1.00
C3       0.45195    0.91301    0.74836   1.00
H1       0.35312    0.92490    0.63737   1.00
H1       0.35656    0.93581    0.69806   1.00
C5       0.48701    0.91046    0.64335   1.00
C5       0.48743    0.90627    0.68498   1.00
H1       0.35172    0.92585    0.56951   1.00
H1       0.35847    0.93478    0.76591   1.00
H1       0.47255    0.91337    0.56552   1.00
H1       0.47688    0.90751    0.76348   1.00
C6       0.52461    0.91010    0.62015   1.00
C6       0.52429    0.89425    0.70619   1.00
H2       0.52365    0.93333    0.59845   1.00
H2       0.51700    0.87240    0.72810   1.00
H2       0.54940    0.91891    0.63786   1.00
H2       0.54394    0.87806    0.68728   1.00
C6       0.53364    0.86952    0.60106   1.00
C6       0.54692    0.92958    0.72442   1.00
H2       0.50706    0.85775    0.58792   1.00
H2       0.52630    0.94919    0.73883   1.00
C6       0.56671    0.86787    0.56959   1.00
C6       0.58035    0.92017    0.75411   1.00
H2       0.54111    0.84923    0.62449   1.00
H2       0.55932    0.94656    0.70046   1.00
C6       0.55554    0.89107    0.53235   1.00
C6       0.56424    0.90151    0.79208   1.00
C6       0.60590    0.88358    0.58574   1.00
C6       0.61146    0.89278    0.73607   1.00
C6       0.57292    0.82466    0.55745   1.00
C6       0.60081    0.95896    0.76554   1.00
H2       0.52765    0.88109    0.52058   1.00
H2       0.54172    0.91986    0.80520   1.00
H2       0.55306    0.92218    0.53830   1.00
H2       0.55153    0.87292    0.78654   1.00
H2       0.57753    0.88752    0.50959   1.00
H2       0.58735    0.89757    0.81363   1.00
H2       0.62937    0.87973    0.56455   1.00
H2       0.63599    0.88866    0.75598   1.00
H2       0.60391    0.91465    0.59225   1.00
H2       0.59920    0.86408    0.72994   1.00
H2       0.61404    0.86828    0.61245   1.00
H2       0.62270    0.90486    0.70885   1.00
H2       0.54614    0.81225    0.54542   1.00
H2       0.58015    0.97925    0.77883   1.00
H2       0.59563    0.82202    0.53525   1.00
H2       0.62428    0.95393    0.78649   1.00
H2       0.58166    0.80689    0.58239   1.00
H2       0.61351    0.97317    0.74002   1.00
C4       0.41979    1.14525    0.41510   1.00
C4       0.42068    1.18691    0.41637   1.00
C3       0.42301    1.12397    0.37953   1.00
C3       0.42895    1.21004    0.38282   1.00
C3       0.41547    1.12354    0.45048   1.00
C3       0.41316    1.20670    0.45233   1.00
C2       0.41991    1.06095    0.41270   1.00
C2       0.42062    1.27122    0.41846   1.00
C3       0.42328    1.08311    0.37830   1.00
C3       0.42874    1.25091    0.38371   1.00
C3       0.41609    1.08196    0.44800   1.00
C3       0.41301    1.24836    0.45195   1.00
H1       0.42490    1.13737    0.35312   1.00
H1       0.43581    1.19806    0.35656   1.00
C5       0.41046    1.14335    0.48701   1.00
C5       0.40627    1.18498    0.48743   1.00
H1       0.42585    1.06951    0.35172   1.00
H1       0.43478    1.26591    0.35847   1.00
H1       0.41337    1.06552    0.47255   1.00
H1       0.40751    1.26348    0.47688   1.00
C6       0.41010    1.12015    0.52461   1.00
C6       0.39425    1.20619    0.52429   1.00
H2       0.43333    1.09845    0.52365   1.00
H2       0.37240    1.22810    0.51700   1.00
H2       0.41891    1.13786    0.54940   1.00
H2       0.37806    1.18728    0.54394   1.00
C6       0.36952    1.10106    0.53364   1.00
C6       0.42958    1.22442    0.54692   1.00
H2       0.35775    1.08792    0.50706   1.00
H2       0.44919    1.23883    0.52630   1.00
C6       0.36787    1.06959    0.56671   1.00
C6       0.42017    1.25411    0.58035   1.00
H2       0.34923    1.12449    0.54111   1.00
H2       0.44656    1.20046    0.55932   1.00
C6       0.39107    1.03235    0.55554   1.00
C6       0.40151    1.29208    0.56424   1.00
C6       0.38358    1.08574    0.60590   1.00
C6       0.39278    1.23607    0.61146   1.00
C6       0.32466    1.05745    0.57292   1.00
C6       0.45896    1.26554    0.60081   1.00
H2       0.38109    1.02058    0.52765   1.00
H2       0.41986    1.30520    0.54172   1.00
H2       0.42218    1.03830    0.55306   1.00
H2       0.37292    1.28654    0.55153   1.00
H2       0.38752    1.00959    0.57753   1.00
H2       0.39757    1.31363    0.58735   1.00
H2       0.37973    1.06455    0.62937   1.00
H2       0.38866    1.25598    0.63599   1.00
H2       0.41465    1.09225    0.60391   1.00
H2       0.36408    1.22994    0.59920   1.00
H2       0.36828    1.11245    0.61404   1.00
H2       0.40486    1.20885    0.62270   1.00
H2       0.31225    1.04542    0.54614   1.00
H2       0.47925    1.27883    0.58015   1.00
H2       0.32202    1.03525    0.59563   1.00
H2       0.45393    1.28649    0.62428   1.00
H2       0.30689    1.08239    0.58166   1.00
H2       0.47317    1.24002    0.61351   1.00
C4       0.18475    0.91510    0.41021   1.00
C4       0.14309    0.91637    0.40932   1.00
C3       0.20603    0.87953    0.40699   1.00
C3       0.11996    0.88282    0.40105   1.00
C3       0.20646    0.95048    0.41453   1.00
C3       0.12330    0.95233    0.41684   1.00
C2       0.26905    0.91270    0.41009   1.00
C2       0.05878    0.91846    0.40938   1.00
C3       0.24689    0.87830    0.40672   1.00
C3       0.07909    0.88371    0.40126   1.00
C3       0.24804    0.94800    0.41391   1.00
C3       0.08164    0.95195    0.41699   1.00
H1       0.19263    0.85312    0.40510   1.00
H1       0.13194    0.85656    0.39419   1.00
C5       0.18665    0.98701    0.41954   1.00
C5       0.14502    0.98743    0.42373   1.00
H1       0.26049    0.85172    0.40415   1.00
H1       0.06409    0.85847    0.39522   1.00
H1       0.26448    0.97255    0.41663   1.00
H1       0.06652    0.97688    0.42249   1.00
C6       0.20985    1.02461    0.41990   1.00
C6       0.12381    1.02429    0.43575   1.00
H2       0.23155    1.02365    0.39667   1.00
H2       0.10190    1.01700    0.45760   1.00
H2       0.19214    1.04940    0.41109   1.00
H2       0.14272    1.04394    0.45194   1.00
C6       0.22894    1.03364    0.46048   1.00
C6       0.10558    1.04692    0.40042   1.00
H2       0.24208    1.00706    0.47225   1.00
H2       0.09117    1.02630    0.38081   1.00
C6       0.26041    1.06671    0.46213   1.00
C6       0.07589    1.08035    0.40983   1.00
H2       0.20551    1.04111    0.48077   1.00
H2       0.12954    1.05932    0.38344   1.00
C6       0.29765    1.05554    0.43893   1.00
C6       0.03792    1.06424    0.42849   1.00
C6       0.24426    1.10590    0.44642   1.00
C6       0.09393    1.11146    0.43722   1.00
C6       0.27255    1.07292    0.50534   1.00
C6       0.06446    1.10081    0.37104   1.00
H2       0.30942    1.02765    0.44891   1.00
H2       0.02480    1.04172    0.41014   1.00
H2       0.29170    1.05306    0.40782   1.00
H2       0.04346    1.05153    0.45708   1.00
H2       0.32041    1.07753    0.44248   1.00
H2       0.01637    1.08735    0.43243   1.00
H2       0.26545    1.12937    0.45027   1.00
H2       0.07402    1.13599    0.44134   1.00
H2       0.23775    1.10391    0.41535   1.00
H2       0.10006    1.09920    0.46592   1.00
H2       0.21755    1.11404    0.46172   1.00
H2       0.12115    1.12270    0.42514   1.00
H2       0.28458    1.04614    0.51775   1.00
H2       0.05117    1.08015    0.35075   1.00
H2       0.29475    1.09563    0.50798   1.00
H2       0.04351    1.12428    0.37607   1.00
H2       0.24761    1.08166    0.52311   1.00
H2       0.08998    1.11351    0.35683   1.00
C4       0.64525    0.91510    0.41979   1.00
C4       0.68691    0.91637    0.42068   1.00
C3       0.62397    0.87953    0.42301   1.00
C3       0.71004    0.88282    0.42895   1.00
C3       0.62354    0.95048    0.41547   1.00
C3       0.70670    0.95233    0.41316   1.00
C2       0.56095    0.91270    0.41991   1.00
C2       0.77122    0.91846    0.42062   1.00
C3       0.58311    0.87830    0.42328   1.00
C3       0.75091    0.88371    0.42874   1.00
C3       0.58196    0.94800    0.41609   1.00
C3       0.74836    0.95195    0.41301   1.00
H1       0.63737    0.85312    0.42490   1.00
H1       0.69806    0.85656    0.43581   1.00
C5       0.64335    0.98701    0.41046   1.00
C5       0.68498    0.98743    0.40627   1.00
H1       0.56951    0.85172    0.42585   1.00
H1       0.76591    0.85847    0.43478   1.00
H1       0.56552    0.97255    0.41337   1.00
H1       0.76348    0.97688    0.40751   1.00
C6       0.62015    1.02461    0.41010   1.00
C6       0.70619    1.02429    0.39425   1.00
H2       0.59845    1.02365    0.43333   1.00
H2       0.72810    1.01700    0.37240   1.00
H2       0.63786    1.04940    0.41891   1.00
H2       0.68728    1.04394    0.37806   1.00
C6       0.60106    1.03364    0.36952   1.00
C6       0.72442    1.04692    0.42958   1.00
H2       0.58792    1.00706    0.35775   1.00
H2       0.73883    1.02630    0.44919   1.00
C6       0.56959    1.06671    0.36787   1.00
C6       0.75411    1.08035    0.42017   1.00
H2       0.62449    1.04111    0.34923   1.00
H2       0.70046    1.05932    0.44656   1.00
C6       0.53235    1.05554    0.39107   1.00
C6       0.79208    1.06424    0.40151   1.00
C6       0.58574    1.10590    0.38358   1.00
C6       0.73607    1.11146    0.39278   1.00
C6       0.55745    1.07292    0.32466   1.00
C6       0.76554    1.10081    0.45896   1.00
H2       0.52058    1.02765    0.38109   1.00
H2       0.80520    1.04172    0.41986   1.00
H2       0.53830    1.05306    0.42218   1.00
H2       0.78654    1.05153    0.37292   1.00
H2       0.50959    1.07753    0.38752   1.00
H2       0.81363    1.08735    0.39757   1.00
H2       0.56455    1.12937    0.37973   1.00
H2       0.75598    1.13599    0.38866   1.00
H2       0.59225    1.10391    0.41465   1.00
H2       0.72994    1.09920    0.36408   1.00
H2       0.61245    1.11404    0.36828   1.00
H2       0.70885    1.12270    0.40486   1.00
H2       0.54542    1.04614    0.31225   1.00
H2       0.77883    1.08015    0.47925   1.00
H2       0.53525    1.09563    0.32202   1.00
H2       0.78649    1.12428    0.45393   1.00
H2       0.58239    1.08166    0.30689   1.00
H2       0.74002    1.11351    0.47317   1.00
C4       0.41021    0.68475    0.41510   1.00
C4       0.40932    0.64309    0.41637   1.00
C3       0.40699    0.70603    0.37953   1.00
C3       0.40105    0.61996    0.38282   1.00
C3       0.41453    0.70646    0.45048   1.00
C3       0.41684    0.62330    0.45233   1.00
C2       0.41009    0.76905    0.41270   1.00
C2       0.40938    0.55878    0.41846   1.00
C3       0.40672    0.74689    0.37830   1.00
C3       0.40126    0.57909    0.38371   1.00
C3       0.41391    0.74804    0.44800   1.00
C3       0.41699    0.58164    0.45195   1.00
H1       0.40510    0.69263    0.35312   1.00
H1       0.39419    0.63194    0.35656   1.00
C5       0.41954    0.68665    0.48701   1.00
C5       0.42373    0.64502    0.48743   1.00
H1       0.40415    0.76049    0.35172   1.00
H1       0.39522    0.56409    0.35847   1.00
H1       0.41663    0.76448    0.47255   1.00
H1       0.42249    0.56652    0.47688   1.00
C6       0.41990    0.70985    0.52461   1.00
C6       0.43575    0.62381    0.52429   1.00
H2       0.39667    0.73155    0.52365   1.00
H2       0.45760    0.60190    0.51700   1.00
H2       0.41109    0.69214    0.54940   1.00
H2       0.45194    0.64272    0.54394   1.00
C6       0.46048    0.72894    0.53364   1.00
C6       0.40042    0.60558    0.54692   1.00
H2       0.47225    0.74208    0.50706   1.00
H2       0.38081    0.59117    0.52630   1.00
C6       0.46213    0.76041    0.56671   1.00
C6       0.40983    0.57589    0.58035   1.00
H2       0.48077    0.70551    0.54111   1.00
H2       0.38344    0.62954    0.55932   1.00
C6       0.43893    0.79765    0.55554   1.00
C6       0.42849    0.53792    0.56424   1.00
C6       0.44642    0.74426    0.60590   1.00
C6       0.43722    0.59393    0.61146   1.00
C6       0.50534    0.77255    0.57292   1.00
C6       0.37104    0.56446    0.60081   1.00
H2       0.44891    0.80942    0.52765   1.00
H2       0.41014    0.52480    0.54172   1.00
H2       0.40782    0.79170    0.55306   1.00
H2       0.45708    0.54346    0.55153   1.00
H2       0.44248    0.82041    0.57753   1.00
H2       0.43243    0.51637    0.58735   1.00
H2       0.45027    0.76545    0.62937   1.00
H2       0.44134    0.57402    0.63599   1.00
H2       0.41535    0.73775    0.60391   1.00
H2       0.46592    0.60006    0.59920   1.00
H2       0.46172    0.71755    0.61404   1.00
H2       0.42514    0.62115    0.62270   1.00
H2       0.51775    0.78458    0.54614   1.00
H2       0.35075    0.55117    0.58015   1.00
H2       0.50798    0.79475    0.59563   1.00
H2       0.37607    0.54351    0.62428   1.00
H2       0.52311    0.74761    0.58166   1.00
H2       0.35683    0.58998    0.61351   1.00
C4       0.41510    0.91021    0.18475   1.00
C4       0.41637    0.90932    0.14309   1.00
C3       0.37953    0.90699    0.20603   1.00
C3       0.38282    0.90105    0.11996   1.00
C3       0.45048    0.91453    0.20646   1.00
C3       0.45233    0.91684    0.12330   1.00
C2       0.41270    0.91009    0.26905   1.00
C2       0.41846    0.90938    0.05878   1.00
C3       0.37830    0.90672    0.24689   1.00
C3       0.38371    0.90126    0.07909   1.00
C3       0.44800    0.91391    0.24804   1.00
C3       0.45195    0.91699    0.08164   1.00
H1       0.35312    0.90510    0.19263   1.00
H1       0.35656    0.89419    0.13194   1.00
C5       0.48701    0.91954    0.18665   1.00
C5       0.48743    0.92373    0.14502   1.00
H1       0.35172    0.90415    0.26049   1.00
H1       0.35847    0.89522    0.06409   1.00
H1       0.47255    0.91663    0.26448   1.00
H1       0.47688    0.92249    0.06652   1.00
C6       0.52461    0.91990    0.20985   1.00
C6       0.52429    0.93575    0.12381   1.00
H2       0.52365    0.89667    0.23155   1.00
H2       0.51700    0.95760    0.10190   1.00
H2       0.54940    0.91109    0.19214   1.00
H2       0.54394    0.95194    0.14272   1.00
C6       0.53364    0.96048    0.22894   1.00
C6       0.54692    0.90042    0.10558   1.00
H2       0.50706    0.97225    0.24208   1.00
H2       0.52630    0.88081    0.09117   1.00
C6       0.56671    0.96213    0.26041   1.00
C6       0.58035    0.90983    0.07589   1.00
H2       0.54111    0.98077    0.20551   1.00
H2       0.55932    0.88344    0.12954   1.00
C6       0.55554    0.93893    0.29765   1.00
C6       0.56424    0.92849    0.03792   1.00
C6       0.60590    0.94642    0.24426   1.00
C6       0.61146    0.93722    0.09393   1.00
C6       0.57292    1.00534    0.27255   1.00
C6       0.60081    0.87104    0.06446   1.00
H2       0.52765    0.94891    0.30942   1.00
H2       0.54172    0.91014    0.02480   1.00
H2       0.55306    0.90782    0.29170   1.00
H2       0.55153    0.95708    0.04346   1.00
H2       0.57753    0.94248    0.32041   1.00
H2       0.58735    0.93243    0.01637   1.00
H2       0.62937    0.95027    0.26545   1.00
H2       0.63599    0.94134    0.07402   1.00
H2       0.60391    0.91535    0.23775   1.00
H2       0.59920    0.96592    0.10006   1.00
H2       0.61404    0.96172    0.21755   1.00
H2       0.62270    0.92514    0.12115   1.00
H2       0.54614    1.01775    0.28458   1.00
H2       0.58015    0.85075    0.05117   1.00
H2       0.59563    1.00798    0.29475   1.00
H2       0.62428    0.87607    0.04351   1.00
H2       0.58166    1.02311    0.24761   1.00
H2       0.61351    0.85683    0.08998   1.00
C4       0.91510    0.41979    0.64525   1.00
C4       0.91637    0.42068    0.68691   1.00
C3       0.87953    0.42301    0.62397   1.00
C3       0.88282    0.42895    0.71004   1.00
C3       0.95048    0.41547    0.62354   1.00
C3       0.95233    0.41316    0.70670   1.00
C2       0.91270    0.41991    0.56095   1.00
C2       0.91846    0.42062    0.77122   1.00
C3       0.87830    0.42328    0.58311   1.00
C3       0.88371    0.42874    0.75091   1.00
C3       0.94800    0.41609    0.58196   1.00
C3       0.95195    0.41301    0.74836   1.00
H1       0.85312    0.42490    0.63737   1.00
H1       0.85656    0.43581    0.69806   1.00
C5       0.98701    0.41046    0.64335   1.00
C5       0.98743    0.40627    0.68498   1.00
H1       0.85172    0.42585    0.56951   1.00
H1       0.85847    0.43478    0.76591   1.00
H1       0.97255    0.41337    0.56552   1.00
H1       0.97688    0.40751    0.76348   1.00
C6       1.02461    0.41010    0.62015   1.00
C6       1.02429    0.39425    0.70619   1.00
H2       1.02365    0.43333    0.59845   1.00
H2       1.01700    0.37240    0.72810   1.00
H2       1.04940    0.41891    0.63786   1.00
H2       1.04394    0.37806    0.68728   1.00
C6       1.03364    0.36952    0.60106   1.00
C6       1.04692    0.42958    0.72442   1.00
H2       1.00706    0.35775    0.58792   1.00
H2       1.02630    0.44919    0.73883   1.00
C6       1.06671    0.36787    0.56959   1.00
C6       1.08035    0.42017    0.75411   1.00
H2       1.04111    0.34923    0.62449   1.00
H2       1.05932    0.44656    0.70046   1.00
C6       1.05554    0.39107    0.53235   1.00
C6       1.06424    0.40151    0.79208   1.00
C6       1.10590    0.38358    0.58574   1.00
C6       1.11146    0.39278    0.73607   1.00
C6       1.07292    0.32466    0.55745   1.00
C6       1.10081    0.45896    0.76554   1.00
H2       1.02765    0.38109    0.52058   1.00
H2       1.04172    0.41986    0.80520   1.00
H2       1.05306    0.42218    0.53830   1.00
H2       1.05153    0.37292    0.78654   1.00
H2       1.07753    0.38752    0.50959   1.00
H2       1.08735    0.39757    0.81363   1.00
H2       1.12937    0.37973    0.56455   1.00
H2       1.13599    0.38866    0.75598   1.00
H2       1.10391    0.41465    0.59225   1.00
H2       1.09920    0.36408    0.72994   1.00
H2       1.11404    0.36828    0.61245   1.00
H2       1.12270    0.40486    0.70885   1.00
H2       1.04614    0.31225    0.54542   1.00
H2       1.08015    0.47925    0.77883   1.00
H2       1.09563    0.32202    0.53525   1.00
H2       1.12428    0.45393    0.78649   1.00
H2       1.08166    0.30689    0.58239   1.00
H2       1.11351    0.47317    0.74002   1.00
C4       0.91979    0.64525    0.41510   1.00
C4       0.92068    0.68691    0.41637   1.00
C3       0.92301    0.62397    0.37953   1.00
C3       0.92895    0.71004    0.38282   1.00
C3       0.91547    0.62354    0.45048   1.00
C3       0.91316    0.70670    0.45233   1.00
C2       0.91991    0.56095    0.41270   1.00
C2       0.92062    0.77122    0.41846   1.00
C3       0.92328    0.58311    0.37830   1.00
C3       0.92874    0.75091    0.38371   1.00
C3       0.91609    0.58196    0.44800   1.00
C3       0.91301    0.74836    0.45195   1.00
H1       0.92490    0.63737    0.35312   1.00
H1       0.93581    0.69806    0.35656   1.00
C5       0.91046    0.64335    0.48701   1.00
C5       0.90627    0.68498    0.48743   1.00
H1       0.92585    0.56951    0.35172   1.00
H1       0.93478    0.76591    0.35847   1.00
H1       0.91337    0.56552    0.47255   1.00
H1       0.90751    0.76348    0.47688   1.00
C6       0.91010    0.62015    0.52461   1.00
C6       0.89425    0.70619    0.52429   1.00
H2       0.93333    0.59845    0.52365   1.00
H2       0.87240    0.72810    0.51700   1.00
H2       0.91891    0.63786    0.54940   1.00
H2       0.87806    0.68728    0.54394   1.00
C6       0.86952    0.60106    0.53364   1.00
C6       0.92958    0.72442    0.54692   1.00
H2       0.85775    0.58792    0.50706   1.00
H2       0.94919    0.73883    0.52630   1.00
C6       0.86787    0.56959    0.56671   1.00
C6       0.92017    0.75411    0.58035   1.00
H2       0.84923    0.62449    0.54111   1.00
H2       0.94656    0.70046    0.55932   1.00
C6       0.89107    0.53235    0.55554   1.00
C6       0.90151    0.79208    0.56424   1.00
C6       0.88358    0.58574    0.60590   1.00
C6       0.89278    0.73607    0.61146   1.00
C6       0.82466    0.55745    0.57292   1.00
C6       0.95896    0.76554    0.60081   1.00
H2       0.88109    0.52058    0.52765   1.00
H2       0.91986    0.80520    0.54172   1.00
H2       0.92218    0.53830    0.55306   1.00
H2       0.87292    0.78654    0.55153   1.00
H2       0.88752    0.50959    0.57753   1.00
H2       0.89757    0.81363    0.58735   1.00
H2       0.87973    0.56455    0.62937   1.00
H2       0.88866    0.75598    0.63599   1.00
H2       0.91465    0.59225    0.60391   1.00
H2       0.86408    0.72994    0.59920   1.00
H2       0.86828    0.61245    0.61404   1.00
H2       0.90486    0.70885    0.62270   1.00
H2       0.81225    0.54542    0.54614   1.00
H2       0.97925    0.77883    0.58015   1.00
H2       0.82202    0.53525    0.59563   1.00
H2       0.95393    0.78649    0.62428   1.00
H2       0.80689    0.58239    0.58166   1.00
H2       0.97317    0.74002    0.61351   1.00
C4       0.68475    0.41510    0.41021   1.00
C4       0.64309    0.41637    0.40932   1.00
C3       0.70603    0.37953    0.40699   1.00
C3       0.61996    0.38282    0.40105   1.00
C3       0.70646    0.45048    0.41453   1.00
C3       0.62330    0.45233    0.41684   1.00
C2       0.76905    0.41270    0.41009   1.00
C2       0.55878    0.41846    0.40938   1.00
C3       0.74689    0.37830    0.40672   1.00
C3       0.57909    0.38371    0.40126   1.00
C3       0.74804    0.44800    0.41391   1.00
C3       0.58164    0.45195    0.41699   1.00
H1       0.69263    0.35312    0.40510   1.00
H1       0.63194    0.35656    0.39419   1.00
C5       0.68665    0.48701    0.41954   1.00
C5       0.64502    0.48743    0.42373   1.00
H1       0.76049    0.35172    0.40415   1.00
H1       0.56409    0.35847    0.39522   1.00
H1       0.76448    0.47255    0.41663   1.00
H1       0.56652    0.47688    0.42249   1.00
C6       0.70985    0.52461    0.41990   1.00
C6       0.62381    0.52429    0.43575   1.00
H2       0.73155    0.52365    0.39667   1.00
H2       0.60190    0.51700    0.45760   1.00
H2       0.69214    0.54940    0.41109   1.00
H2       0.64272    0.54394    0.45194   1.00
C6       0.72894    0.53364    0.46048   1.00
C6       0.60558    0.54692    0.40042   1.00
H2       0.74208    0.50706    0.47225   1.00
H2       0.59117    0.52630    0.38081   1.00
C6       0.76041    0.56671    0.46213   1.00
C6       0.57589    0.58035    0.40983   1.00
H2       0.70551    0.54111    0.48077   1.00
H2       0.62954    0.55932    0.38344   1.00
C6       0.79765    0.55554    0.43893   1.00
C6       0.53792    0.56424    0.42849   1.00
C6       0.74426    0.60590    0.44642   1.00
C6       0.59393    0.61146    0.43722   1.00
C6       0.77255    0.57292    0.50534   1.00
C6       0.56446    0.60081    0.37104   1.00
H2       0.80942    0.52765    0.44891   1.00
H2       0.52480    0.54172    0.41014   1.00
H2       0.79170    0.55306    0.40782   1.00
H2       0.54346    0.55153    0.45708   1.00
H2       0.82041    0.57753    0.44248   1.00
H2       0.51637    0.58735    0.43243   1.00
H2       0.76545    0.62937    0.45027   1.00
H2       0.57402    0.63599    0.44134   1.00
H2       0.73775    0.60391    0.41535   1.00
H2       0.60006    0.59920    0.46592   1.00
H2       0.71755    0.61404    0.46172   1.00
H2       0.62115    0.62270    0.42514   1.00
H2       0.78458    0.54614    0.51775   1.00
H2       0.55117    0.58015    0.35075   1.00
H2       0.79475    0.59563    0.50798   1.00
H2       0.54351    0.62428    0.37607   1.00
H2       0.74761    0.58166    0.52311   1.00
H2       0.58998    0.61351    0.35683   1.00
C4       1.14525    0.41510    0.41979   1.00
C4       1.18691    0.41637    0.42068   1.00
C3       1.12397    0.37953    0.42301   1.00
C3       1.21004    0.38282    0.42895   1.00
C3       1.12354    0.45048    0.41547   1.00
C3       1.20670    0.45233    0.41316   1.00
C2       1.06095    0.41270    0.41991   1.00
C2       1.27122    0.41846    0.42062   1.00
C3       1.08311    0.37830    0.42328   1.00
C3       1.25091    0.38371    0.42874   1.00
C3       1.08196    0.44800    0.41609   1.00
C3       1.24836    0.45195    0.41301   1.00
H1       1.13737    0.35312    0.42490   1.00
H1       1.19806    0.35656    0.43581   1.00
C5       1.14335    0.48701    0.41046   1.00
C5       1.18498    0.48743    0.40627   1.00
H1       1.06951    0.35172    0.42585   1.00
H1       1.26591    0.35847    0.43478   1.00
H1       1.06552    0.47255    0.41337   1.00
H1       1.26348    0.47688    0.40751   1.00
C6       1.12015    0.52461    0.41010   1.00
C6       1.20619    0.52429    0.39425   1.00
H2       1.09845    0.52365    0.43333   1.00
H2       1.22810    0.51700    0.37240   1.00
H2       1.13786    0.54940    0.41891   1.00
H2       1.18728    0.54394    0.37806   1.00
C6       1.10106    0.53364    0.36952   1.00
C6       1.22442    0.54692    0.42958   1.00
H2       1.08792    0.50706    0.35775   1.00
H2       1.23883    0.52630    0.44919   1.00
C6       1.06959    0.56671    0.36787   1.00
C6       1.25411    0.58035    0.42017   1.00
H2       1.12449    0.54111    0.34923   1.00
H2       1.20046    0.55932    0.44656   1.00
C6       1.03235    0.55554    0.39107   1.00
C6       1.29208    0.56424    0.40151   1.00
C6       1.08574    0.60590    0.38358   1.00
C6       1.23607    0.61146    0.39278   1.00
C6       1.05745    0.57292    0.32466   1.00
C6       1.26554    0.60081    0.45896   1.00
H2       1.02058    0.52765    0.38109   1.00
H2       1.30520    0.54172    0.41986   1.00
H2       1.03830    0.55306    0.42218   1.00
H2       1.28654    0.55153    0.37292   1.00
H2       1.00959    0.57753    0.38752   1.00
H2       1.31363    0.58735    0.39757   1.00
H2       1.06455    0.62937    0.37973   1.00
H2       1.25598    0.63599    0.38866   1.00
H2       1.09225    0.60391    0.41465   1.00
H2       1.22994    0.59920    0.36408   1.00
H2       1.11245    0.61404    0.36828   1.00
H2       1.20885    0.62270    0.40486   1.00
H2       1.04542    0.54614    0.31225   1.00
H2       1.27883    0.58015    0.47925   1.00
H2       1.03525    0.59563    0.32202   1.00
H2       1.28649    0.62428    0.45393   1.00
H2       1.08239    0.58166    0.30689   1.00
H2       1.24002    0.61351    0.47317   1.00
C4       0.91021    0.18475    0.41510   1.00
C4       0.90932    0.14309    0.41637   1.00
C3       0.90699    0.20603    0.37953   1.00
C3       0.90105    0.11996    0.38282   1.00
C3       0.91453    0.20646    0.45048   1.00
C3       0.91684    0.12330    0.45233   1.00
C2       0.91009    0.26905    0.41270   1.00
C2       0.90938    0.05878    0.41846   1.00
C3       0.90672    0.24689    0.37830   1.00
C3       0.90126    0.07909    0.38371   1.00
C3       0.91391    0.24804    0.44800   1.00
C3       0.91699    0.08164    0.45195   1.00
H1       0.90510    0.19263    0.35312   1.00
H1       0.89419    0.13194    0.35656   1.00
C5       0.91954    0.18665    0.48701   1.00
C5       0.92373    0.14502    0.48743   1.00
H1       0.90415    0.26049    0.35172   1.00
H1       0.89522    0.06409    0.35847   1.00
H1       0.91663    0.26448    0.47255   1.00
H1       0.92249    0.06652    0.47688   1.00
C6       0.91990    0.20985    0.52461   1.00
C6       0.93575    0.12381    0.52429   1.00
H2       0.89667    0.23155    0.52365   1.00
H2       0.95760    0.10190    0.51700   1.00
H2       0.91109    0.19214    0.54940   1.00
H2       0.95194    0.14272    0.54394   1.00
C6       0.96048    0.22894    0.53364   1.00
C6       0.90042    0.10558    0.54692   1.00
H2       0.97225    0.24208    0.50706   1.00
H2       0.88081    0.09117    0.52630   1.00
C6       0.96213    0.26041    0.56671   1.00
C6       0.90983    0.07589    0.58035   1.00
H2       0.98077    0.20551    0.54111   1.00
H2       0.88344    0.12954    0.55932   1.00
C6       0.93893    0.29765    0.55554   1.00
C6       0.92849    0.03792    0.56424   1.00
C6       0.94642    0.24426    0.60590   1.00
C6       0.93722    0.09393    0.61146   1.00
C6       1.00534    0.27255    0.57292   1.00
C6       0.87104    0.06446    0.60081   1.00
H2       0.94891    0.30942    0.52765   1.00
H2       0.91014    0.02480    0.54172   1.00
H2       0.90782    0.29170    0.55306   1.00
H2       0.95708    0.04346    0.55153   1.00
H2       0.94248    0.32041    0.57753   1.00
H2       0.93243    0.01637    0.58735   1.00
H2       0.95027    0.26545    0.62937   1.00
H2       0.94134    0.07402    0.63599   1.00
H2       0.91535    0.23775    0.60391   1.00
H2       0.96592    0.10006    0.59920   1.00
H2       0.96172    0.21755    0.61404   1.00
H2       0.92514    0.12115    0.62270   1.00
H2       1.01775    0.28458    0.54614   1.00
H2       0.85075    0.05117    0.58015   1.00
H2       1.00798    0.29475    0.59563   1.00
H2       0.87607    0.04351    0.62428   1.00
H2       1.02311    0.24761    0.58166   1.00
H2       0.85683    0.08998    0.61351   1.00
C4       0.91510    0.41021    0.18475   1.00
C4       0.91637    0.40932    0.14309   1.00
C3       0.87953    0.40699    0.20603   1.00
C3       0.88282    0.40105    0.11996   1.00
C3       0.95048    0.41453    0.20646   1.00
C3       0.95233    0.41684    0.12330   1.00
C2       0.91270    0.41009    0.26905   1.00
C2       0.91846    0.40938    0.05878   1.00
C3       0.87830    0.40672    0.24689   1.00
C3       0.88371    0.40126    0.07909   1.00
C3       0.94800    0.41391    0.24804   1.00
C3       0.95195    0.41699    0.08164   1.00
H1       0.85312    0.40510    0.19263   1.00
H1       0.85656    0.39419    0.13194   1.00
C5       0.98701    0.41954    0.18665   1.00
C5       0.98743    0.42373    0.14502   1.00
H1       0.85172    0.40415    0.26049   1.00
H1       0.85847    0.39522    0.06409   1.00
H1       0.97255    0.41663    0.26448   1.00
H1       0.97688    0.42249    0.06652   1.00
C6       1.02461    0.41990    0.20985   1.00
C6       1.02429    0.43575    0.12381   1.00
H2       1.02365    0.39667    0.23155   1.00
H2       1.01700    0.45760    0.10190   1.00
H2       1.04940    0.41109    0.19214   1.00
H2       1.04394    0.45194    0.14272   1.00
C6       1.03364    0.46048    0.22894   1.00
C6       1.04692    0.40042    0.10558   1.00
H2       1.00706    0.47225    0.24208   1.00
H2       1.02630    0.38081    0.09117   1.00
C6       1.06671    0.46213    0.26041   1.00
C6       1.08035    0.40983    0.07589   1.00
H2       1.04111    0.48077    0.20551   1.00
H2       1.05932    0.38344    0.12954   1.00
C6       1.05554    0.43893    0.29765   1.00
C6       1.06424    0.42849    0.03792   1.00
C6       1.10590    0.44642    0.24426   1.00
C6       1.11146    0.43722    0.09393   1.00
C6       1.07292    0.50534    0.27255   1.00
C6       1.10081    0.37104    0.06446   1.00
H2       1.02765    0.44891    0.30942   1.00
H2       1.04172    0.41014    0.02480   1.00
H2       1.05306    0.40782    0.29170   1.00
H2       1.05153    0.45708    0.04346   1.00
H2       1.07753    0.44248    0.32041   1.00
H2       1.08735    0.43243    0.01637   1.00
H2       1.12937    0.45027    0.26545   1.00
H2       1.13599    0.44134    0.07402   1.00
H2       1.10391    0.41535    0.23775   1.00
H2       1.09920    0.46592    0.10006   1.00
H2       1.11404    0.46172    0.21755   1.00
H2       1.12270    0.42514    0.12115   1.00
H2       1.04614    0.51775    0.28458   1.00
H2       1.08015    0.35075    0.05117   1.00
H2       1.09563    0.50798    0.29475   1.00
H2       1.12428    0.37607    0.04351   1.00
H2       1.08166    0.52311    0.24761   1.00
H2       1.11351    0.35683    0.08998   1.00
