data_IRMOF10_SG202_interpen_Ligand4cp_label_p.

_audit_creation_method             'generated by an auxiliary program of Tobunporous'

_symmetry_space_group_name_H-M     'P 1'
_symmetry_Int_Tables_number        1
_symmetry_cell_setting             triclinic

_cell_length_a                    34.2800
_cell_length_b                    34.2800
_cell_length_c                    34.2800
_cell_angle_alpha                 90.0000
_cell_angle_beta                  90.0000
_cell_angle_gamma                 90.0000

loop_
_atom_site_label
_atom_site_fract_x
_atom_site_fract_y
_atom_site_fract_z
_atom_site_occupancy
O1       0.75000    0.75000    0.75000   1.00
Zn1      0.71720    0.78280    0.78280   1.00
Zn1      0.78280    0.71720    0.78280   1.00
Zn1      0.78280    0.78280    0.71720   1.00
Zn1      0.71720    0.71720    0.71720   1.00
O2       0.72650    0.77350    0.83820   1.00
O2       0.72650    0.83820    0.77350   1.00
O2       0.66180    0.77350    0.77350   1.00
O2       0.77350    0.72650    0.83820   1.00
O2       0.83820    0.72650    0.77350   1.00
O2       0.77350    0.66180    0.77350   1.00
O2       0.77350    0.83820    0.72650   1.00
O2       0.83820    0.77350    0.72650   1.00
O2       0.77350    0.77350    0.66180   1.00
O2       0.66180    0.72650    0.72650   1.00
O2       0.72650    0.66180    0.72650   1.00
O2       0.72650    0.72650    0.66180   1.00
C1       0.75000    0.75000    0.85520   1.00
C1       0.75000    0.85520    0.75000   1.00
C1       0.64480    0.75000    0.75000   1.00
C1       0.85520    0.75000    0.75000   1.00
C1       0.75000    0.64480    0.75000   1.00
C1       0.75000    0.75000    0.64480   1.00
O1       0.25000    0.25000    0.75000   1.00
Zn1      0.21720    0.28280    0.78280   1.00
Zn1      0.28280    0.21720    0.78280   1.00
Zn1      0.28280    0.28280    0.71720   1.00
Zn1      0.21720    0.21720    0.71720   1.00
O2       0.22650    0.27350    0.83820   1.00
O2       0.22650    0.33820    0.77350   1.00
O2       0.16180    0.27350    0.77350   1.00
O2       0.27350    0.22650    0.83820   1.00
O2       0.33820    0.22650    0.77350   1.00
O2       0.27350    0.16180    0.77350   1.00
O2       0.27350    0.33820    0.72650   1.00
O2       0.33820    0.27350    0.72650   1.00
O2       0.27350    0.27350    0.66180   1.00
O2       0.16180    0.22650    0.72650   1.00
O2       0.22650    0.16180    0.72650   1.00
O2       0.22650    0.22650    0.66180   1.00
C1       0.25000    0.25000    0.85520   1.00
C1       0.25000    0.35520    0.75000   1.00
C1       0.14480    0.25000    0.75000   1.00
C1       0.35520    0.25000    0.75000   1.00
C1       0.25000    0.14480    0.75000   1.00
C1       0.25000    0.25000    0.64480   1.00
O1       0.25000    0.75000    0.25000   1.00
Zn1      0.21720    0.78280    0.28280   1.00
Zn1      0.28280    0.71720    0.28280   1.00
Zn1      0.28280    0.78280    0.21720   1.00
Zn1      0.21720    0.71720    0.21720   1.00
O2       0.22650    0.77350    0.33820   1.00
O2       0.22650    0.83820    0.27350   1.00
O2       0.16180    0.77350    0.27350   1.00
O2       0.27350    0.72650    0.33820   1.00
O2       0.33820    0.72650    0.27350   1.00
O2       0.27350    0.66180    0.27350   1.00
O2       0.27350    0.83820    0.22650   1.00
O2       0.33820    0.77350    0.22650   1.00
O2       0.27350    0.77350    0.16180   1.00
O2       0.16180    0.72650    0.22650   1.00
O2       0.22650    0.66180    0.22650   1.00
O2       0.22650    0.72650    0.16180   1.00
C1       0.25000    0.75000    0.35520   1.00
C1       0.25000    0.85520    0.25000   1.00
C1       0.14480    0.75000    0.25000   1.00
C1       0.35520    0.75000    0.25000   1.00
C1       0.25000    0.64480    0.25000   1.00
C1       0.25000    0.75000    0.14480   1.00
O1       0.75000    0.25000    0.25000   1.00
Zn1      0.71720    0.28280    0.28280   1.00
Zn1      0.78280    0.21720    0.28280   1.00
Zn1      0.78280    0.28280    0.21720   1.00
Zn1      0.71720    0.21720    0.21720   1.00
O2       0.72650    0.27350    0.33820   1.00
O2       0.72650    0.33820    0.27350   1.00
O2       0.66180    0.27350    0.27350   1.00
O2       0.77350    0.22650    0.33820   1.00
O2       0.83820    0.22650    0.27350   1.00
O2       0.77350    0.16180    0.27350   1.00
O2       0.77350    0.33820    0.22650   1.00
O2       0.83820    0.27350    0.22650   1.00
O2       0.77350    0.27350    0.16180   1.00
O2       0.66180    0.22650    0.22650   1.00
O2       0.72650    0.16180    0.22650   1.00
O2       0.72650    0.22650    0.16180   1.00
C1       0.75000    0.25000    0.35520   1.00
C1       0.75000    0.35520    0.25000   1.00
C1       0.64480    0.25000    0.25000   1.00
C1       0.85520    0.25000    0.25000   1.00
C1       0.75000    0.14480    0.25000   1.00
C1       0.75000    0.25000    0.14480   1.00
O1       0.25000    0.25000    0.25000   1.00
Zn1      0.28280    0.21720    0.21720   1.00
Zn1      0.21720    0.28280    0.21720   1.00
Zn1      0.21720    0.21720    0.28280   1.00
Zn1      0.28280    0.28280    0.28280   1.00
O2       0.27350    0.22650    0.16180   1.00
O2       0.27350    0.16180    0.22650   1.00
O2       0.33820    0.22650    0.22650   1.00
O2       0.22650    0.27350    0.16180   1.00
O2       0.16180    0.27350    0.22650   1.00
O2       0.22650    0.33820    0.22650   1.00
O2       0.22650    0.16180    0.27350   1.00
O2       0.16180    0.22650    0.27350   1.00
O2       0.22650    0.22650    0.33820   1.00
O2       0.33820    0.27350    0.27350   1.00
O2       0.27350    0.33820    0.27350   1.00
O2       0.27350    0.27350    0.33820   1.00
C1       0.25000    0.25000    0.14480   1.00
C1       0.25000    0.14480    0.25000   1.00
C1       0.35520    0.25000    0.25000   1.00
C1       0.14480    0.25000    0.25000   1.00
C1       0.25000    0.35520    0.25000   1.00
C1       0.25000    0.25000    0.35520   1.00
O1       0.75000    0.75000    0.25000   1.00
Zn1      0.78280    0.71720    0.21720   1.00
Zn1      0.71720    0.78280    0.21720   1.00
Zn1      0.71720    0.71720    0.28280   1.00
Zn1      0.78280    0.78280    0.28280   1.00
O2       0.77350    0.72650    0.16180   1.00
O2       0.77350    0.66180    0.22650   1.00
O2       0.83820    0.72650    0.22650   1.00
O2       0.72650    0.77350    0.16180   1.00
O2       0.66180    0.77350    0.22650   1.00
O2       0.72650    0.83820    0.22650   1.00
O2       0.72650    0.66180    0.27350   1.00
O2       0.66180    0.72650    0.27350   1.00
O2       0.72650    0.72650    0.33820   1.00
O2       0.83820    0.77350    0.27350   1.00
O2       0.77350    0.83820    0.27350   1.00
O2       0.77350    0.77350    0.33820   1.00
C1       0.75000    0.75000    0.14480   1.00
C1       0.75000    0.64480    0.25000   1.00
C1       0.85520    0.75000    0.25000   1.00
C1       0.64480    0.75000    0.25000   1.00
C1       0.75000    0.85520    0.25000   1.00
C1       0.75000    0.75000    0.35520   1.00
O1       0.75000    0.25000    0.75000   1.00
Zn1      0.78280    0.21720    0.71720   1.00
Zn1      0.71720    0.28280    0.71720   1.00
Zn1      0.71720    0.21720    0.78280   1.00
Zn1      0.78280    0.28280    0.78280   1.00
O2       0.77350    0.22650    0.66180   1.00
O2       0.77350    0.16180    0.72650   1.00
O2       0.83820    0.22650    0.72650   1.00
O2       0.72650    0.27350    0.66180   1.00
O2       0.66180    0.27350    0.72650   1.00
O2       0.72650    0.33820    0.72650   1.00
O2       0.72650    0.16180    0.77350   1.00
O2       0.66180    0.22650    0.77350   1.00
O2       0.72650    0.22650    0.83820   1.00
O2       0.83820    0.27350    0.77350   1.00
O2       0.77350    0.33820    0.77350   1.00
O2       0.77350    0.27350    0.83820   1.00
C1       0.75000    0.25000    0.64480   1.00
C1       0.75000    0.14480    0.75000   1.00
C1       0.85520    0.25000    0.75000   1.00
C1       0.64480    0.25000    0.75000   1.00
C1       0.75000    0.35520    0.75000   1.00
C1       0.75000    0.25000    0.85520   1.00
O1       0.25000    0.75000    0.75000   1.00
Zn1      0.28280    0.71720    0.71720   1.00
Zn1      0.21720    0.78280    0.71720   1.00
Zn1      0.21720    0.71720    0.78280   1.00
Zn1      0.28280    0.78280    0.78280   1.00
O2       0.27350    0.72650    0.66180   1.00
O2       0.27350    0.66180    0.72650   1.00
O2       0.33820    0.72650    0.72650   1.00
O2       0.22650    0.77350    0.66180   1.00
O2       0.16180    0.77350    0.72650   1.00
O2       0.22650    0.83820    0.72650   1.00
O2       0.22650    0.66180    0.77350   1.00
O2       0.16180    0.72650    0.77350   1.00
O2       0.22650    0.72650    0.83820   1.00
O2       0.33820    0.77350    0.77350   1.00
O2       0.27350    0.83820    0.77350   1.00
O2       0.27350    0.77350    0.83820   1.00
C1       0.25000    0.75000    0.64480   1.00
C1       0.25000    0.64480    0.75000   1.00
C1       0.35520    0.75000    0.75000   1.00
C1       0.14480    0.75000    0.75000   1.00
C1       0.25000    0.85520    0.75000   1.00
C1       0.25000    0.75000    0.85520   1.00
O1       0.91500    0.91500    0.91500   1.00
Zn1      0.88220    0.94780    0.94780   1.00
Zn1      0.94780    0.88220    0.94780   1.00
Zn1      0.94780    0.94780    0.88220   1.00
Zn1      0.88220    0.88220    0.88220   1.00
O2       0.89150    0.93850    1.00320   1.00
O2       0.89150    1.00320    0.93850   1.00
O2       0.82680    0.93850    0.93850   1.00
O2       0.93850    0.89150    1.00320   1.00
O2       1.00320    0.89150    0.93850   1.00
O2       0.93850    0.82680    0.93850   1.00
O2       0.93850    1.00320    0.89150   1.00
O2       1.00320    0.93850    0.89150   1.00
O2       0.93850    0.93850    0.82680   1.00
O2       0.82680    0.89150    0.89150   1.00
O2       0.89150    0.82680    0.89150   1.00
O2       0.89150    0.89150    0.82680   1.00
C1       0.91500    0.91500    1.02020   1.00
C1       0.91500    1.02020    0.91500   1.00
C1       0.80980    0.91500    0.91500   1.00
C1       1.02020    0.91500    0.91500   1.00
C1       0.91500    0.80980    0.91500   1.00
C1       0.91500    0.91500    0.80980   1.00
O1       0.41500    0.41500    0.91500   1.00
Zn1      0.38220    0.44780    0.94780   1.00
Zn1      0.44780    0.38220    0.94780   1.00
Zn1      0.44780    0.44780    0.88220   1.00
Zn1      0.38220    0.38220    0.88220   1.00
O2       0.39150    0.43850    1.00320   1.00
O2       0.39150    0.50320    0.93850   1.00
O2       0.32680    0.43850    0.93850   1.00
O2       0.43850    0.39150    1.00320   1.00
O2       0.50320    0.39150    0.93850   1.00
O2       0.43850    0.32680    0.93850   1.00
O2       0.43850    0.50320    0.89150   1.00
O2       0.50320    0.43850    0.89150   1.00
O2       0.43850    0.43850    0.82680   1.00
O2       0.32680    0.39150    0.89150   1.00
O2       0.39150    0.32680    0.89150   1.00
O2       0.39150    0.39150    0.82680   1.00
C1       0.41500    0.41500    1.02020   1.00
C1       0.41500    0.52020    0.91500   1.00
C1       0.30980    0.41500    0.91500   1.00
C1       0.52020    0.41500    0.91500   1.00
C1       0.41500    0.30980    0.91500   1.00
C1       0.41500    0.41500    0.80980   1.00
O1       0.41500    0.91500    0.41500   1.00
Zn1      0.38220    0.94780    0.44780   1.00
Zn1      0.44780    0.88220    0.44780   1.00
Zn1      0.44780    0.94780    0.38220   1.00
Zn1      0.38220    0.88220    0.38220   1.00
O2       0.39150    0.93850    0.50320   1.00
O2       0.39150    1.00320    0.43850   1.00
O2       0.32680    0.93850    0.43850   1.00
O2       0.43850    0.89150    0.50320   1.00
O2       0.50320    0.89150    0.43850   1.00
O2       0.43850    0.82680    0.43850   1.00
O2       0.43850    1.00320    0.39150   1.00
O2       0.50320    0.93850    0.39150   1.00
O2       0.43850    0.93850    0.32680   1.00
O2       0.32680    0.89150    0.39150   1.00
O2       0.39150    0.82680    0.39150   1.00
O2       0.39150    0.89150    0.32680   1.00
C1       0.41500    0.91500    0.52020   1.00
C1       0.41500    1.02020    0.41500   1.00
C1       0.30980    0.91500    0.41500   1.00
C1       0.52020    0.91500    0.41500   1.00
C1       0.41500    0.80980    0.41500   1.00
C1       0.41500    0.91500    0.30980   1.00
O1       0.91500    0.41500    0.41500   1.00
Zn1      0.88220    0.44780    0.44780   1.00
Zn1      0.94780    0.38220    0.44780   1.00
Zn1      0.94780    0.44780    0.38220   1.00
Zn1      0.88220    0.38220    0.38220   1.00
O2       0.89150    0.43850    0.50320   1.00
O2       0.89150    0.50320    0.43850   1.00
O2       0.82680    0.43850    0.43850   1.00
O2       0.93850    0.39150    0.50320   1.00
O2       1.00320    0.39150    0.43850   1.00
O2       0.93850    0.32680    0.43850   1.00
O2       0.93850    0.50320    0.39150   1.00
O2       1.00320    0.43850    0.39150   1.00
O2       0.93850    0.43850    0.32680   1.00
O2       0.82680    0.39150    0.39150   1.00
O2       0.89150    0.32680    0.39150   1.00
O2       0.89150    0.39150    0.32680   1.00
C1       0.91500    0.41500    0.52020   1.00
C1       0.91500    0.52020    0.41500   1.00
C1       0.80980    0.41500    0.41500   1.00
C1       1.02020    0.41500    0.41500   1.00
C1       0.91500    0.30980    0.41500   1.00
C1       0.91500    0.41500    0.30980   1.00
O1       0.41500    0.41500    0.41500   1.00
Zn1      0.44780    0.38220    0.38220   1.00
Zn1      0.38220    0.44780    0.38220   1.00
Zn1      0.38220    0.38220    0.44780   1.00
Zn1      0.44780    0.44780    0.44780   1.00
O2       0.43850    0.39150    0.32680   1.00
O2       0.43850    0.32680    0.39150   1.00
O2       0.50320    0.39150    0.39150   1.00
O2       0.39150    0.43850    0.32680   1.00
O2       0.32680    0.43850    0.39150   1.00
O2       0.39150    0.50320    0.39150   1.00
O2       0.39150    0.32680    0.43850   1.00
O2       0.32680    0.39150    0.43850   1.00
O2       0.39150    0.39150    0.50320   1.00
O2       0.50320    0.43850    0.43850   1.00
O2       0.43850    0.50320    0.43850   1.00
O2       0.43850    0.43850    0.50320   1.00
C1       0.41500    0.41500    0.30980   1.00
C1       0.41500    0.30980    0.41500   1.00
C1       0.52020    0.41500    0.41500   1.00
C1       0.30980    0.41500    0.41500   1.00
C1       0.41500    0.52020    0.41500   1.00
C1       0.41500    0.41500    0.52020   1.00
O1       0.91500    0.91500    0.41500   1.00
Zn1      0.94780    0.88220    0.38220   1.00
Zn1      0.88220    0.94780    0.38220   1.00
Zn1      0.88220    0.88220    0.44780   1.00
Zn1      0.94780    0.94780    0.44780   1.00
O2       0.93850    0.89150    0.32680   1.00
O2       0.93850    0.82680    0.39150   1.00
O2       1.00320    0.89150    0.39150   1.00
O2       0.89150    0.93850    0.32680   1.00
O2       0.82680    0.93850    0.39150   1.00
O2       0.89150    1.00320    0.39150   1.00
O2       0.89150    0.82680    0.43850   1.00
O2       0.82680    0.89150    0.43850   1.00
O2       0.89150    0.89150    0.50320   1.00
O2       1.00320    0.93850    0.43850   1.00
O2       0.93850    1.00320    0.43850   1.00
O2       0.93850    0.93850    0.50320   1.00
C1       0.91500    0.91500    0.30980   1.00
C1       0.91500    0.80980    0.41500   1.00
C1       1.02020    0.91500    0.41500   1.00
C1       0.80980    0.91500    0.41500   1.00
C1       0.91500    1.02020    0.41500   1.00
C1       0.91500    0.91500    0.52020   1.00
O1       0.91500    0.41500    0.91500   1.00
Zn1      0.94780    0.38220    0.88220   1.00
Zn1      0.88220    0.44780    0.88220   1.00
Zn1      0.88220    0.38220    0.94780   1.00
Zn1      0.94780    0.44780    0.94780   1.00
O2       0.93850    0.39150    0.82680   1.00
O2       0.93850    0.32680    0.89150   1.00
O2       1.00320    0.39150    0.89150   1.00
O2       0.89150    0.43850    0.82680   1.00
O2       0.82680    0.43850    0.89150   1.00
O2       0.89150    0.50320    0.89150   1.00
O2       0.89150    0.32680    0.93850   1.00
O2       0.82680    0.39150    0.93850   1.00
O2       0.89150    0.39150    1.00320   1.00
O2       1.00320    0.43850    0.93850   1.00
O2       0.93850    0.50320    0.93850   1.00
O2       0.93850    0.43850    1.00320   1.00
C1       0.91500    0.41500    0.80980   1.00
C1       0.91500    0.30980    0.91500   1.00
C1       1.02020    0.41500    0.91500   1.00
C1       0.80980    0.41500    0.91500   1.00
C1       0.91500    0.52020    0.91500   1.00
C1       0.91500    0.41500    1.02020   1.00
O1       0.41500    0.91500    0.91500   1.00
Zn1      0.44780    0.88220    0.88220   1.00
Zn1      0.38220    0.94780    0.88220   1.00
Zn1      0.38220    0.88220    0.94780   1.00
Zn1      0.44780    0.94780    0.94780   1.00
O2       0.43850    0.89150    0.82680   1.00
O2       0.43850    0.82680    0.89150   1.00
O2       0.50320    0.89150    0.89150   1.00
O2       0.39150    0.93850    0.82680   1.00
O2       0.32680    0.93850    0.89150   1.00
O2       0.39150    1.00320    0.89150   1.00
O2       0.39150    0.82680    0.93850   1.00
O2       0.32680    0.89150    0.93850   1.00
O2       0.39150    0.89150    1.00320   1.00
O2       0.50320    0.93850    0.93850   1.00
O2       0.43850    1.00320    0.93850   1.00
O2       0.43850    0.93850    1.00320   1.00
C1       0.41500    0.91500    0.80980   1.00
C1       0.41500    0.80980    0.91500   1.00
C1       0.52020    0.91500    0.91500   1.00
C1       0.30980    0.91500    0.91500   1.00
C1       0.41500    1.02020    0.91500   1.00
C1       0.41500    0.91500    1.02020   1.00
C4       0.74886    0.75465    0.98025   1.00
C4       0.74985    0.75585    1.02191   1.00
C3       0.71366    0.74856    0.95897   1.00
C3       0.71531    0.75514    1.04504   1.00
C3       0.78415    0.75964    0.95854   1.00
C3       0.78653    0.75788    1.04170   1.00
C2       0.74651    0.75415    0.89595   1.00
C2       0.75189    0.75632    1.10622   1.00
C3       0.71241    0.74849    0.91811   1.00
C3       0.71622    0.75517    1.08591   1.00
C3       0.78159    0.75960    0.91696   1.00
C3       0.78621    0.75764    1.08336   1.00
H1       0.68767    0.74354    0.97237   1.00
H1       0.68816    0.75497    1.03306   1.00
C5       0.82073    0.76426    0.97835   1.00
C5       0.82222    0.76032    1.01998   1.00
H1       0.68607    0.74410    0.90451   1.00
H1       0.69028    0.75447    1.10091   1.00
H1       0.80601    0.76332    0.90052   1.00
H1       0.81171    0.75879    1.09848   1.00
C6       0.85714    0.77365    0.95515   1.00
C6       0.86093    0.75826    1.04119   1.00
H2       0.85020    0.79583    0.93345   1.00
H2       0.85955    0.73526    1.06310   1.00
H2       0.87881    0.78858    0.97286   1.00
H2       0.88411    0.74770    1.02228   1.00
C6       0.87637    0.73679    0.93606   1.00
C6       0.87365    0.79824    1.05942   1.00
H2       0.85374    0.71854    0.92292   1.00
H2       0.84865    0.81184    1.07383   1.00
C6       0.90874    0.74376    0.90459   1.00
C6       0.90837    0.79781    1.08911   1.00
H2       0.88884    0.71912    0.95949   1.00
H2       0.88123    0.81786    1.03546   1.00
C6       0.89194    0.76327    0.86735   1.00
C6       0.89764    0.77561    1.12708   1.00
C6       0.94253    0.76908    0.92074   1.00
C6       0.94552    0.77941    1.07107   1.00
C6       0.92592    0.70363    0.89245   1.00
C6       0.91809    0.84057    1.10054   1.00
H2       0.86758    0.74642    0.85558   1.00
H2       0.87114    0.78750    1.14020   1.00
H2       0.88149    0.79268    0.87330   1.00
H2       0.89277    0.74471    1.12154   1.00
H2       0.91410    0.76553    0.84459   1.00
H2       0.92098    0.77779    1.14863   1.00
H2       0.96619    0.77144    0.89955   1.00
H2       0.97027    0.78178    1.09098   1.00
H2       0.93256    0.79858    0.92725   1.00
H2       0.94110    0.74851    1.06494   1.00
H2       0.95435    0.75641    0.94745   1.00
H2       0.95324    0.79398    1.04385   1.00
H2       0.90328    0.68471    0.88042   1.00
H2       0.89288    0.85482    1.11383   1.00
H2       0.94854    0.70695    0.87025   1.00
H2       0.94206    0.84178    1.12149   1.00
H2       0.93896    0.68872    0.91739   1.00
H2       0.92668    0.85758    1.07502   1.00
C4       0.75465    0.98025    0.74886   1.00
C4       0.75585    1.02191    0.74985   1.00
C3       0.74856    0.95897    0.71366   1.00
C3       0.75514    1.04504    0.71531   1.00
C3       0.75964    0.95854    0.78415   1.00
C3       0.75788    1.04170    0.78653   1.00
C2       0.75415    0.89595    0.74651   1.00
C2       0.75632    1.10622    0.75189   1.00
C3       0.74849    0.91811    0.71241   1.00
C3       0.75517    1.08591    0.71622   1.00
C3       0.75960    0.91696    0.78159   1.00
C3       0.75764    1.08336    0.78621   1.00
H1       0.74354    0.97237    0.68767   1.00
H1       0.75497    1.03306    0.68816   1.00
C5       0.76426    0.97835    0.82073   1.00
C5       0.76032    1.01998    0.82222   1.00
H1       0.74410    0.90451    0.68607   1.00
H1       0.75447    1.10091    0.69028   1.00
H1       0.76332    0.90052    0.80601   1.00
H1       0.75879    1.09848    0.81171   1.00
C6       0.77365    0.95515    0.85714   1.00
C6       0.75826    1.04119    0.86093   1.00
H2       0.79583    0.93345    0.85020   1.00
H2       0.73526    1.06310    0.85955   1.00
H2       0.78858    0.97286    0.87881   1.00
H2       0.74770    1.02228    0.88411   1.00
C6       0.73679    0.93606    0.87637   1.00
C6       0.79824    1.05942    0.87365   1.00
H2       0.71854    0.92292    0.85374   1.00
H2       0.81184    1.07383    0.84865   1.00
C6       0.74376    0.90459    0.90874   1.00
C6       0.79781    1.08911    0.90837   1.00
H2       0.71912    0.95949    0.88884   1.00
H2       0.81786    1.03546    0.88123   1.00
C6       0.76327    0.86735    0.89194   1.00
C6       0.77561    1.12708    0.89764   1.00
C6       0.76908    0.92074    0.94253   1.00
C6       0.77941    1.07107    0.94552   1.00
C6       0.70363    0.89245    0.92592   1.00
C6       0.84057    1.10054    0.91809   1.00
H2       0.74642    0.85558    0.86758   1.00
H2       0.78750    1.14020    0.87114   1.00
H2       0.79268    0.87330    0.88149   1.00
H2       0.74471    1.12154    0.89277   1.00
H2       0.76553    0.84459    0.91410   1.00
H2       0.77779    1.14863    0.92098   1.00
H2       0.77144    0.89955    0.96619   1.00
H2       0.78178    1.09098    0.97027   1.00
H2       0.79858    0.92725    0.93256   1.00
H2       0.74851    1.06494    0.94110   1.00
H2       0.75641    0.94745    0.95435   1.00
H2       0.79398    1.04385    0.95324   1.00
H2       0.68471    0.88042    0.90328   1.00
H2       0.85482    1.11383    0.89288   1.00
H2       0.70695    0.87025    0.94854   1.00
H2       0.84178    1.12149    0.94206   1.00
H2       0.68872    0.91739    0.93896   1.00
H2       0.85758    1.07502    0.92668   1.00
C4       0.51975    0.74886    0.74535   1.00
C4       0.47809    0.74985    0.74415   1.00
C3       0.54103    0.71366    0.75144   1.00
C3       0.45496    0.71531    0.74486   1.00
C3       0.54146    0.78415    0.74036   1.00
C3       0.45830    0.78653    0.74212   1.00
C2       0.60405    0.74651    0.74585   1.00
C2       0.39378    0.75189    0.74368   1.00
C3       0.58189    0.71241    0.75151   1.00
C3       0.41409    0.71622    0.74483   1.00
C3       0.58304    0.78159    0.74040   1.00
C3       0.41664    0.78621    0.74236   1.00
H1       0.52763    0.68767    0.75646   1.00
H1       0.46694    0.68816    0.74503   1.00
C5       0.52165    0.82073    0.73574   1.00
C5       0.48002    0.82222    0.73968   1.00
H1       0.59549    0.68607    0.75590   1.00
H1       0.39909    0.69028    0.74553   1.00
H1       0.59948    0.80601    0.73668   1.00
H1       0.40152    0.81171    0.74121   1.00
C6       0.54485    0.85714    0.72635   1.00
C6       0.45881    0.86093    0.74174   1.00
H2       0.56655    0.85020    0.70417   1.00
H2       0.43690    0.85955    0.76474   1.00
H2       0.52714    0.87881    0.71142   1.00
H2       0.47772    0.88411    0.75230   1.00
C6       0.56394    0.87637    0.76321   1.00
C6       0.44058    0.87365    0.70176   1.00
H2       0.57708    0.85374    0.78146   1.00
H2       0.42617    0.84865    0.68816   1.00
C6       0.59541    0.90874    0.75624   1.00
C6       0.41089    0.90837    0.70219   1.00
H2       0.54051    0.88884    0.78088   1.00
H2       0.46454    0.88123    0.68214   1.00
C6       0.63265    0.89194    0.73673   1.00
C6       0.37292    0.89764    0.72439   1.00
C6       0.57926    0.94253    0.73092   1.00
C6       0.42893    0.94552    0.72059   1.00
C6       0.60755    0.92592    0.79637   1.00
C6       0.39946    0.91809    0.65943   1.00
H2       0.64442    0.86758    0.75358   1.00
H2       0.35980    0.87114    0.71250   1.00
H2       0.62670    0.88149    0.70732   1.00
H2       0.37846    0.89277    0.75529   1.00
H2       0.65541    0.91410    0.73447   1.00
H2       0.35137    0.92098    0.72221   1.00
H2       0.60045    0.96619    0.72856   1.00
H2       0.40902    0.97027    0.71822   1.00
H2       0.57275    0.93256    0.70142   1.00
H2       0.43506    0.94110    0.75149   1.00
H2       0.55255    0.95435    0.74359   1.00
H2       0.45615    0.95324    0.70602   1.00
H2       0.61958    0.90328    0.81529   1.00
H2       0.38617    0.89288    0.64518   1.00
H2       0.62975    0.94854    0.79305   1.00
H2       0.37851    0.94206    0.65822   1.00
H2       0.58261    0.93896    0.81128   1.00
H2       0.42498    0.92668    0.64242   1.00
C4       0.98025    0.74886    0.75465   1.00
C4       1.02191    0.74985    0.75585   1.00
C3       0.95897    0.71366    0.74856   1.00
C3       1.04504    0.71531    0.75514   1.00
C3       0.95854    0.78415    0.75964   1.00
C3       1.04170    0.78653    0.75788   1.00
C2       0.89595    0.74651    0.75415   1.00
C2       1.10622    0.75189    0.75632   1.00
C3       0.91811    0.71241    0.74849   1.00
C3       1.08591    0.71622    0.75517   1.00
C3       0.91696    0.78159    0.75960   1.00
C3       1.08336    0.78621    0.75764   1.00
H1       0.97237    0.68767    0.74354   1.00
H1       1.03306    0.68816    0.75497   1.00
C5       0.97835    0.82073    0.76426   1.00
C5       1.01998    0.82222    0.76032   1.00
H1       0.90451    0.68607    0.74410   1.00
H1       1.10091    0.69028    0.75447   1.00
H1       0.90052    0.80601    0.76332   1.00
H1       1.09848    0.81171    0.75879   1.00
C6       0.95515    0.85714    0.77365   1.00
C6       1.04119    0.86093    0.75826   1.00
H2       0.93345    0.85020    0.79583   1.00
H2       1.06310    0.85955    0.73526   1.00
H2       0.97286    0.87881    0.78858   1.00
H2       1.02228    0.88411    0.74770   1.00
C6       0.93606    0.87637    0.73679   1.00
C6       1.05942    0.87365    0.79824   1.00
H2       0.92292    0.85374    0.71854   1.00
H2       1.07383    0.84865    0.81184   1.00
C6       0.90459    0.90874    0.74376   1.00
C6       1.08911    0.90837    0.79781   1.00
H2       0.95949    0.88884    0.71912   1.00
H2       1.03546    0.88123    0.81786   1.00
C6       0.86735    0.89194    0.76327   1.00
C6       1.12708    0.89764    0.77561   1.00
C6       0.92074    0.94253    0.76908   1.00
C6       1.07107    0.94552    0.77941   1.00
C6       0.89245    0.92592    0.70363   1.00
C6       1.10054    0.91809    0.84057   1.00
H2       0.85558    0.86758    0.74642   1.00
H2       1.14020    0.87114    0.78750   1.00
H2       0.87330    0.88149    0.79268   1.00
H2       1.12154    0.89277    0.74471   1.00
H2       0.84459    0.91410    0.76553   1.00
H2       1.14863    0.92098    0.77779   1.00
H2       0.89955    0.96619    0.77144   1.00
H2       1.09098    0.97027    0.78178   1.00
H2       0.92725    0.93256    0.79858   1.00
H2       1.06494    0.94110    0.74851   1.00
H2       0.94745    0.95435    0.75641   1.00
H2       1.04385    0.95324    0.79398   1.00
H2       0.88042    0.90328    0.68471   1.00
H2       1.11383    0.89288    0.85482   1.00
H2       0.87025    0.94854    0.70695   1.00
H2       1.12149    0.94206    0.84178   1.00
H2       0.91739    0.93896    0.68872   1.00
H2       1.07502    0.92668    0.85758   1.00
C4       0.74535    0.51975    0.74886   1.00
C4       0.74415    0.47809    0.74985   1.00
C3       0.75144    0.54103    0.71366   1.00
C3       0.74486    0.45496    0.71531   1.00
C3       0.74036    0.54146    0.78415   1.00
C3       0.74212    0.45830    0.78653   1.00
C2       0.74585    0.60405    0.74651   1.00
C2       0.74368    0.39378    0.75189   1.00
C3       0.75151    0.58189    0.71241   1.00
C3       0.74483    0.41409    0.71622   1.00
C3       0.74040    0.58304    0.78159   1.00
C3       0.74236    0.41664    0.78621   1.00
H1       0.75646    0.52763    0.68767   1.00
H1       0.74503    0.46694    0.68816   1.00
C5       0.73574    0.52165    0.82073   1.00
C5       0.73968    0.48002    0.82222   1.00
H1       0.75590    0.59549    0.68607   1.00
H1       0.74553    0.39909    0.69028   1.00
H1       0.73668    0.59948    0.80601   1.00
H1       0.74121    0.40152    0.81171   1.00
C6       0.72635    0.54485    0.85714   1.00
C6       0.74174    0.45881    0.86093   1.00
H2       0.70417    0.56655    0.85020   1.00
H2       0.76474    0.43690    0.85955   1.00
H2       0.71142    0.52714    0.87881   1.00
H2       0.75230    0.47772    0.88411   1.00
C6       0.76321    0.56394    0.87637   1.00
C6       0.70176    0.44058    0.87365   1.00
H2       0.78146    0.57708    0.85374   1.00
H2       0.68816    0.42617    0.84865   1.00
C6       0.75624    0.59541    0.90874   1.00
C6       0.70219    0.41089    0.90837   1.00
H2       0.78088    0.54051    0.88884   1.00
H2       0.68214    0.46454    0.88123   1.00
C6       0.73673    0.63265    0.89194   1.00
C6       0.72439    0.37292    0.89764   1.00
C6       0.73092    0.57926    0.94253   1.00
C6       0.72059    0.42893    0.94552   1.00
C6       0.79637    0.60755    0.92592   1.00
C6       0.65943    0.39946    0.91809   1.00
H2       0.75358    0.64442    0.86758   1.00
H2       0.71250    0.35980    0.87114   1.00
H2       0.70732    0.62670    0.88149   1.00
H2       0.75529    0.37846    0.89277   1.00
H2       0.73447    0.65541    0.91410   1.00
H2       0.72221    0.35137    0.92098   1.00
H2       0.72856    0.60045    0.96619   1.00
H2       0.71822    0.40902    0.97027   1.00
H2       0.70142    0.57275    0.93256   1.00
H2       0.75149    0.43506    0.94110   1.00
H2       0.74359    0.55255    0.95435   1.00
H2       0.70602    0.45615    0.95324   1.00
H2       0.81529    0.61958    0.90328   1.00
H2       0.64518    0.38617    0.89288   1.00
H2       0.79305    0.62975    0.94854   1.00
H2       0.65822    0.37851    0.94206   1.00
H2       0.81128    0.58261    0.93896   1.00
H2       0.64242    0.42498    0.92668   1.00
C4       0.74886    0.74535    0.51975   1.00
C4       0.74985    0.74415    0.47809   1.00
C3       0.71366    0.75144    0.54103   1.00
C3       0.71531    0.74486    0.45496   1.00
C3       0.78415    0.74036    0.54146   1.00
C3       0.78653    0.74212    0.45830   1.00
C2       0.74651    0.74585    0.60405   1.00
C2       0.75189    0.74368    0.39378   1.00
C3       0.71241    0.75151    0.58189   1.00
C3       0.71622    0.74483    0.41409   1.00
C3       0.78159    0.74040    0.58304   1.00
C3       0.78621    0.74236    0.41664   1.00
H1       0.68767    0.75646    0.52763   1.00
H1       0.68816    0.74503    0.46694   1.00
C5       0.82073    0.73574    0.52165   1.00
C5       0.82222    0.73968    0.48002   1.00
H1       0.68607    0.75590    0.59549   1.00
H1       0.69028    0.74553    0.39909   1.00
H1       0.80601    0.73668    0.59948   1.00
H1       0.81171    0.74121    0.40152   1.00
C6       0.85714    0.72635    0.54485   1.00
C6       0.86093    0.74174    0.45881   1.00
H2       0.85020    0.70417    0.56655   1.00
H2       0.85955    0.76474    0.43690   1.00
H2       0.87881    0.71142    0.52714   1.00
H2       0.88411    0.75230    0.47772   1.00
C6       0.87637    0.76321    0.56394   1.00
C6       0.87365    0.70176    0.44058   1.00
H2       0.85374    0.78146    0.57708   1.00
H2       0.84865    0.68816    0.42617   1.00
C6       0.90874    0.75624    0.59541   1.00
C6       0.90837    0.70219    0.41089   1.00
H2       0.88884    0.78088    0.54051   1.00
H2       0.88123    0.68214    0.46454   1.00
C6       0.89194    0.73673    0.63265   1.00
C6       0.89764    0.72439    0.37292   1.00
C6       0.94253    0.73092    0.57926   1.00
C6       0.94552    0.72059    0.42893   1.00
C6       0.92592    0.79637    0.60755   1.00
C6       0.91809    0.65943    0.39946   1.00
H2       0.86758    0.75358    0.64442   1.00
H2       0.87114    0.71250    0.35980   1.00
H2       0.88149    0.70732    0.62670   1.00
H2       0.89277    0.75529    0.37846   1.00
H2       0.91410    0.73447    0.65541   1.00
H2       0.92098    0.72221    0.35137   1.00
H2       0.96619    0.72856    0.60045   1.00
H2       0.97027    0.71822    0.40902   1.00
H2       0.93256    0.70142    0.57275   1.00
H2       0.94110    0.75149    0.43506   1.00
H2       0.95435    0.74359    0.55255   1.00
H2       0.95324    0.70602    0.45615   1.00
H2       0.90328    0.81529    0.61958   1.00
H2       0.89288    0.64518    0.38617   1.00
H2       0.94854    0.79305    0.62975   1.00
H2       0.94206    0.65822    0.37851   1.00
H2       0.93896    0.81128    0.58261   1.00
H2       0.92668    0.64242    0.42498   1.00
C4       0.24886    0.25465    0.98025   1.00
C4       0.24985    0.25585    1.02191   1.00
C3       0.21366    0.24856    0.95897   1.00
C3       0.21531    0.25514    1.04504   1.00
C3       0.28415    0.25964    0.95854   1.00
C3       0.28653    0.25788    1.04170   1.00
C2       0.24651    0.25415    0.89595   1.00
C2       0.25189    0.25632    1.10622   1.00
C3       0.21241    0.24849    0.91811   1.00
C3       0.21622    0.25517    1.08591   1.00
C3       0.28159    0.25960    0.91696   1.00
C3       0.28621    0.25764    1.08336   1.00
H1       0.18767    0.24354    0.97237   1.00
H1       0.18816    0.25497    1.03306   1.00
C5       0.32073    0.26426    0.97835   1.00
C5       0.32222    0.26032    1.01998   1.00
H1       0.18607    0.24410    0.90451   1.00
H1       0.19028    0.25447    1.10091   1.00
H1       0.30601    0.26332    0.90052   1.00
H1       0.31171    0.25879    1.09848   1.00
C6       0.35714    0.27365    0.95515   1.00
C6       0.36093    0.25826    1.04119   1.00
H2       0.35020    0.29583    0.93345   1.00
H2       0.35955    0.23526    1.06310   1.00
H2       0.37881    0.28858    0.97286   1.00
H2       0.38411    0.24770    1.02228   1.00
C6       0.37637    0.23679    0.93606   1.00
C6       0.37365    0.29824    1.05942   1.00
H2       0.35374    0.21854    0.92292   1.00
H2       0.34865    0.31184    1.07383   1.00
C6       0.40874    0.24376    0.90459   1.00
C6       0.40837    0.29781    1.08911   1.00
H2       0.38884    0.21912    0.95949   1.00
H2       0.38123    0.31786    1.03546   1.00
C6       0.39194    0.26327    0.86735   1.00
C6       0.39764    0.27561    1.12708   1.00
C6       0.44253    0.26908    0.92074   1.00
C6       0.44552    0.27941    1.07107   1.00
C6       0.42592    0.20363    0.89245   1.00
C6       0.41809    0.34057    1.10054   1.00
H2       0.36758    0.24642    0.85558   1.00
H2       0.37114    0.28750    1.14020   1.00
H2       0.38149    0.29268    0.87330   1.00
H2       0.39277    0.24471    1.12154   1.00
H2       0.41410    0.26553    0.84459   1.00
H2       0.42098    0.27779    1.14863   1.00
H2       0.46619    0.27144    0.89955   1.00
H2       0.47027    0.28178    1.09098   1.00
H2       0.43256    0.29858    0.92725   1.00
H2       0.44110    0.24851    1.06494   1.00
H2       0.45435    0.25641    0.94745   1.00
H2       0.45324    0.29398    1.04385   1.00
H2       0.40328    0.18471    0.88042   1.00
H2       0.39288    0.35482    1.11383   1.00
H2       0.44854    0.20695    0.87025   1.00
H2       0.44206    0.34178    1.12149   1.00
H2       0.43896    0.18872    0.91739   1.00
H2       0.42668    0.35758    1.07502   1.00
C4       0.25465    0.48025    0.74886   1.00
C4       0.25585    0.52191    0.74985   1.00
C3       0.24856    0.45897    0.71366   1.00
C3       0.25514    0.54504    0.71531   1.00
C3       0.25964    0.45854    0.78415   1.00
C3       0.25788    0.54170    0.78653   1.00
C2       0.25415    0.39595    0.74651   1.00
C2       0.25632    0.60622    0.75189   1.00
C3       0.24849    0.41811    0.71241   1.00
C3       0.25517    0.58591    0.71622   1.00
C3       0.25960    0.41696    0.78159   1.00
C3       0.25764    0.58336    0.78621   1.00
H1       0.24354    0.47237    0.68767   1.00
H1       0.25497    0.53306    0.68816   1.00
C5       0.26426    0.47835    0.82073   1.00
C5       0.26032    0.51998    0.82222   1.00
H1       0.24410    0.40451    0.68607   1.00
H1       0.25447    0.60091    0.69028   1.00
H1       0.26332    0.40052    0.80601   1.00
H1       0.25879    0.59848    0.81171   1.00
C6       0.27365    0.45515    0.85714   1.00
C6       0.25826    0.54119    0.86093   1.00
H2       0.29583    0.43345    0.85020   1.00
H2       0.23526    0.56310    0.85955   1.00
H2       0.28858    0.47286    0.87881   1.00
H2       0.24770    0.52228    0.88411   1.00
C6       0.23679    0.43606    0.87637   1.00
C6       0.29824    0.55942    0.87365   1.00
H2       0.21854    0.42292    0.85374   1.00
H2       0.31184    0.57383    0.84865   1.00
C6       0.24376    0.40459    0.90874   1.00
C6       0.29781    0.58911    0.90837   1.00
H2       0.21912    0.45949    0.88884   1.00
H2       0.31786    0.53546    0.88123   1.00
C6       0.26327    0.36735    0.89194   1.00
C6       0.27561    0.62708    0.89764   1.00
C6       0.26908    0.42074    0.94253   1.00
C6       0.27941    0.57107    0.94552   1.00
C6       0.20363    0.39245    0.92592   1.00
C6       0.34057    0.60054    0.91809   1.00
H2       0.24642    0.35558    0.86758   1.00
H2       0.28750    0.64020    0.87114   1.00
H2       0.29268    0.37330    0.88149   1.00
H2       0.24471    0.62154    0.89277   1.00
H2       0.26553    0.34459    0.91410   1.00
H2       0.27779    0.64863    0.92098   1.00
H2       0.27144    0.39955    0.96619   1.00
H2       0.28178    0.59098    0.97027   1.00
H2       0.29858    0.42725    0.93256   1.00
H2       0.24851    0.56494    0.94110   1.00
H2       0.25641    0.44745    0.95435   1.00
H2       0.29398    0.54385    0.95324   1.00
H2       0.18471    0.38042    0.90328   1.00
H2       0.35482    0.61383    0.89288   1.00
H2       0.20695    0.37025    0.94854   1.00
H2       0.34178    0.62149    0.94206   1.00
H2       0.18872    0.41739    0.93896   1.00
H2       0.35758    0.57502    0.92668   1.00
C4       0.01975    0.24886    0.74535   1.00
C4       -0.02191   0.24985    0.74415   1.00
C3       0.04103    0.21366    0.75144   1.00
C3       -0.04504   0.21531    0.74486   1.00
C3       0.04146    0.28415    0.74036   1.00
C3       -0.04170   0.28653    0.74212   1.00
C2       0.10405    0.24651    0.74585   1.00
C2       -0.10622   0.25189    0.74368   1.00
C3       0.08189    0.21241    0.75151   1.00
C3       -0.08591   0.21622    0.74483   1.00
C3       0.08304    0.28159    0.74040   1.00
C3       -0.08336   0.28621    0.74236   1.00
H1       0.02763    0.18767    0.75646   1.00
H1       -0.03306   0.18816    0.74503   1.00
C5       0.02165    0.32073    0.73574   1.00
C5       -0.01998   0.32222    0.73968   1.00
H1       0.09549    0.18607    0.75590   1.00
H1       -0.10091   0.19028    0.74553   1.00
H1       0.09948    0.30601    0.73668   1.00
H1       -0.09848   0.31171    0.74121   1.00
C6       0.04485    0.35714    0.72635   1.00
C6       -0.04119   0.36093    0.74174   1.00
H2       0.06655    0.35020    0.70417   1.00
H2       -0.06310   0.35955    0.76474   1.00
H2       0.02714    0.37881    0.71142   1.00
H2       -0.02228   0.38411    0.75230   1.00
C6       0.06394    0.37637    0.76321   1.00
C6       -0.05942   0.37365    0.70176   1.00
H2       0.07708    0.35374    0.78146   1.00
H2       -0.07383   0.34865    0.68816   1.00
C6       0.09541    0.40874    0.75624   1.00
C6       -0.08911   0.40837    0.70219   1.00
H2       0.04051    0.38884    0.78088   1.00
H2       -0.03546   0.38123    0.68214   1.00
C6       0.13265    0.39194    0.73673   1.00
C6       -0.12708   0.39764    0.72439   1.00
C6       0.07926    0.44253    0.73092   1.00
C6       -0.07107   0.44552    0.72059   1.00
C6       0.10755    0.42592    0.79637   1.00
C6       -0.10054   0.41809    0.65943   1.00
H2       0.14442    0.36758    0.75358   1.00
H2       -0.14020   0.37114    0.71250   1.00
H2       0.12670    0.38149    0.70732   1.00
H2       -0.12154   0.39277    0.75529   1.00
H2       0.15541    0.41410    0.73447   1.00
H2       -0.14863   0.42098    0.72221   1.00
H2       0.10045    0.46619    0.72856   1.00
H2       -0.09098   0.47027    0.71822   1.00
H2       0.07275    0.43256    0.70142   1.00
H2       -0.06494   0.44110    0.75149   1.00
H2       0.05255    0.45435    0.74359   1.00
H2       -0.04385   0.45324    0.70602   1.00
H2       0.11958    0.40328    0.81529   1.00
H2       -0.11383   0.39288    0.64518   1.00
H2       0.12975    0.44854    0.79305   1.00
H2       -0.12149   0.44206    0.65822   1.00
H2       0.08261    0.43896    0.81128   1.00
H2       -0.07502   0.42668    0.64242   1.00
C4       0.48025    0.24886    0.75465   1.00
C4       0.52191    0.24985    0.75585   1.00
C3       0.45897    0.21366    0.74856   1.00
C3       0.54504    0.21531    0.75514   1.00
C3       0.45854    0.28415    0.75964   1.00
C3       0.54170    0.28653    0.75788   1.00
C2       0.39595    0.24651    0.75415   1.00
C2       0.60622    0.25189    0.75632   1.00
C3       0.41811    0.21241    0.74849   1.00
C3       0.58591    0.21622    0.75517   1.00
C3       0.41696    0.28159    0.75960   1.00
C3       0.58336    0.28621    0.75764   1.00
H1       0.47237    0.18767    0.74354   1.00
H1       0.53306    0.18816    0.75497   1.00
C5       0.47835    0.32073    0.76426   1.00
C5       0.51998    0.32222    0.76032   1.00
H1       0.40451    0.18607    0.74410   1.00
H1       0.60091    0.19028    0.75447   1.00
H1       0.40052    0.30601    0.76332   1.00
H1       0.59848    0.31171    0.75879   1.00
C6       0.45515    0.35714    0.77365   1.00
C6       0.54119    0.36093    0.75826   1.00
H2       0.43345    0.35020    0.79583   1.00
H2       0.56310    0.35955    0.73526   1.00
H2       0.47286    0.37881    0.78858   1.00
H2       0.52228    0.38411    0.74770   1.00
C6       0.43606    0.37637    0.73679   1.00
C6       0.55942    0.37365    0.79824   1.00
H2       0.42292    0.35374    0.71854   1.00
H2       0.57383    0.34865    0.81184   1.00
C6       0.40459    0.40874    0.74376   1.00
C6       0.58911    0.40837    0.79781   1.00
H2       0.45949    0.38884    0.71912   1.00
H2       0.53546    0.38123    0.81786   1.00
C6       0.36735    0.39194    0.76327   1.00
C6       0.62708    0.39764    0.77561   1.00
C6       0.42074    0.44253    0.76908   1.00
C6       0.57107    0.44552    0.77941   1.00
C6       0.39245    0.42592    0.70363   1.00
C6       0.60054    0.41809    0.84057   1.00
H2       0.35558    0.36758    0.74642   1.00
H2       0.64020    0.37114    0.78750   1.00
H2       0.37330    0.38149    0.79268   1.00
H2       0.62154    0.39277    0.74471   1.00
H2       0.34459    0.41410    0.76553   1.00
H2       0.64863    0.42098    0.77779   1.00
H2       0.39955    0.46619    0.77144   1.00
H2       0.59098    0.47027    0.78178   1.00
H2       0.42725    0.43256    0.79858   1.00
H2       0.56494    0.44110    0.74851   1.00
H2       0.44745    0.45435    0.75641   1.00
H2       0.54385    0.45324    0.79398   1.00
H2       0.38042    0.40328    0.68471   1.00
H2       0.61383    0.39288    0.85482   1.00
H2       0.37025    0.44854    0.70695   1.00
H2       0.62149    0.44206    0.84178   1.00
H2       0.41739    0.43896    0.68872   1.00
H2       0.57502    0.42668    0.85758   1.00
C4       0.24535    0.01975    0.74886   1.00
C4       0.24415    -0.02191   0.74985   1.00
C3       0.25144    0.04103    0.71366   1.00
C3       0.24486    -0.04504   0.71531   1.00
C3       0.24036    0.04146    0.78415   1.00
C3       0.24212    -0.04170   0.78653   1.00
C2       0.24585    0.10405    0.74651   1.00
C2       0.24368    -0.10622   0.75189   1.00
C3       0.25151    0.08189    0.71241   1.00
C3       0.24483    -0.08591   0.71622   1.00
C3       0.24040    0.08304    0.78159   1.00
C3       0.24236    -0.08336   0.78621   1.00
H1       0.25646    0.02763    0.68767   1.00
H1       0.24503    -0.03306   0.68816   1.00
C5       0.23574    0.02165    0.82073   1.00
C5       0.23968    -0.01998   0.82222   1.00
H1       0.25590    0.09549    0.68607   1.00
H1       0.24553    -0.10091   0.69028   1.00
H1       0.23668    0.09948    0.80601   1.00
H1       0.24121    -0.09848   0.81171   1.00
C6       0.22635    0.04485    0.85714   1.00
C6       0.24174    -0.04119   0.86093   1.00
H2       0.20417    0.06655    0.85020   1.00
H2       0.26474    -0.06310   0.85955   1.00
H2       0.21142    0.02714    0.87881   1.00
H2       0.25230    -0.02228   0.88411   1.00
C6       0.26321    0.06394    0.87637   1.00
C6       0.20176    -0.05942   0.87365   1.00
H2       0.28146    0.07708    0.85374   1.00
H2       0.18816    -0.07383   0.84865   1.00
C6       0.25624    0.09541    0.90874   1.00
C6       0.20219    -0.08911   0.90837   1.00
H2       0.28088    0.04051    0.88884   1.00
H2       0.18214    -0.03546   0.88123   1.00
C6       0.23673    0.13265    0.89194   1.00
C6       0.22439    -0.12708   0.89764   1.00
C6       0.23092    0.07926    0.94253   1.00
C6       0.22059    -0.07107   0.94552   1.00
C6       0.29637    0.10755    0.92592   1.00
C6       0.15943    -0.10054   0.91809   1.00
H2       0.25358    0.14442    0.86758   1.00
H2       0.21250    -0.14020   0.87114   1.00
H2       0.20732    0.12670    0.88149   1.00
H2       0.25529    -0.12154   0.89277   1.00
H2       0.23447    0.15541    0.91410   1.00
H2       0.22221    -0.14863   0.92098   1.00
H2       0.22856    0.10045    0.96619   1.00
H2       0.21822    -0.09098   0.97027   1.00
H2       0.20142    0.07275    0.93256   1.00
H2       0.25149    -0.06494   0.94110   1.00
H2       0.24359    0.05255    0.95435   1.00
H2       0.20602    -0.04385   0.95324   1.00
H2       0.31529    0.11958    0.90328   1.00
H2       0.14518    -0.11383   0.89288   1.00
H2       0.29305    0.12975    0.94854   1.00
H2       0.15822    -0.12149   0.94206   1.00
H2       0.31128    0.08261    0.93896   1.00
H2       0.14242    -0.07502   0.92668   1.00
C4       0.24886    0.24535    0.51975   1.00
C4       0.24985    0.24415    0.47809   1.00
C3       0.21366    0.25144    0.54103   1.00
C3       0.21531    0.24486    0.45496   1.00
C3       0.28415    0.24036    0.54146   1.00
C3       0.28653    0.24212    0.45830   1.00
C2       0.24651    0.24585    0.60405   1.00
C2       0.25189    0.24368    0.39378   1.00
C3       0.21241    0.25151    0.58189   1.00
C3       0.21622    0.24483    0.41409   1.00
C3       0.28159    0.24040    0.58304   1.00
C3       0.28621    0.24236    0.41664   1.00
H1       0.18767    0.25646    0.52763   1.00
H1       0.18816    0.24503    0.46694   1.00
C5       0.32073    0.23574    0.52165   1.00
C5       0.32222    0.23968    0.48002   1.00
H1       0.18607    0.25590    0.59549   1.00
H1       0.19028    0.24553    0.39909   1.00
H1       0.30601    0.23668    0.59948   1.00
H1       0.31171    0.24121    0.40152   1.00
C6       0.35714    0.22635    0.54485   1.00
C6       0.36093    0.24174    0.45881   1.00
H2       0.35020    0.20417    0.56655   1.00
H2       0.35955    0.26474    0.43690   1.00
H2       0.37881    0.21142    0.52714   1.00
H2       0.38411    0.25230    0.47772   1.00
C6       0.37637    0.26321    0.56394   1.00
C6       0.37365    0.20176    0.44058   1.00
H2       0.35374    0.28146    0.57708   1.00
H2       0.34865    0.18816    0.42617   1.00
C6       0.40874    0.25624    0.59541   1.00
C6       0.40837    0.20219    0.41089   1.00
H2       0.38884    0.28088    0.54051   1.00
H2       0.38123    0.18214    0.46454   1.00
C6       0.39194    0.23673    0.63265   1.00
C6       0.39764    0.22439    0.37292   1.00
C6       0.44253    0.23092    0.57926   1.00
C6       0.44552    0.22059    0.42893   1.00
C6       0.42592    0.29637    0.60755   1.00
C6       0.41809    0.15943    0.39946   1.00
H2       0.36758    0.25358    0.64442   1.00
H2       0.37114    0.21250    0.35980   1.00
H2       0.38149    0.20732    0.62670   1.00
H2       0.39277    0.25529    0.37846   1.00
H2       0.41410    0.23447    0.65541   1.00
H2       0.42098    0.22221    0.35137   1.00
H2       0.46619    0.22856    0.60045   1.00
H2       0.47027    0.21822    0.40902   1.00
H2       0.43256    0.20142    0.57275   1.00
H2       0.44110    0.25149    0.43506   1.00
H2       0.45435    0.24359    0.55255   1.00
H2       0.45324    0.20602    0.45615   1.00
H2       0.40328    0.31529    0.61958   1.00
H2       0.39288    0.14518    0.38617   1.00
H2       0.44854    0.29305    0.62975   1.00
H2       0.44206    0.15822    0.37851   1.00
H2       0.43896    0.31128    0.58261   1.00
H2       0.42668    0.14242    0.42498   1.00
C4       0.24886    0.75465    0.48025   1.00
C4       0.24985    0.75585    0.52191   1.00
C3       0.21366    0.74856    0.45897   1.00
C3       0.21531    0.75514    0.54504   1.00
C3       0.28415    0.75964    0.45854   1.00
C3       0.28653    0.75788    0.54170   1.00
C2       0.24651    0.75415    0.39595   1.00
C2       0.25189    0.75632    0.60622   1.00
C3       0.21241    0.74849    0.41811   1.00
C3       0.21622    0.75517    0.58591   1.00
C3       0.28159    0.75960    0.41696   1.00
C3       0.28621    0.75764    0.58336   1.00
H1       0.18767    0.74354    0.47237   1.00
H1       0.18816    0.75497    0.53306   1.00
C5       0.32073    0.76426    0.47835   1.00
C5       0.32222    0.76032    0.51998   1.00
H1       0.18607    0.74410    0.40451   1.00
H1       0.19028    0.75447    0.60091   1.00
H1       0.30601    0.76332    0.40052   1.00
H1       0.31171    0.75879    0.59848   1.00
C6       0.35714    0.77365    0.45515   1.00
C6       0.36093    0.75826    0.54119   1.00
H2       0.35020    0.79583    0.43345   1.00
H2       0.35955    0.73526    0.56310   1.00
H2       0.37881    0.78858    0.47286   1.00
H2       0.38411    0.74770    0.52228   1.00
C6       0.37637    0.73679    0.43606   1.00
C6       0.37365    0.79824    0.55942   1.00
H2       0.35374    0.71854    0.42292   1.00
H2       0.34865    0.81184    0.57383   1.00
C6       0.40874    0.74376    0.40459   1.00
C6       0.40837    0.79781    0.58911   1.00
H2       0.38884    0.71912    0.45949   1.00
H2       0.38123    0.81786    0.53546   1.00
C6       0.39194    0.76327    0.36735   1.00
C6       0.39764    0.77561    0.62708   1.00
C6       0.44253    0.76908    0.42074   1.00
C6       0.44552    0.77941    0.57107   1.00
C6       0.42592    0.70363    0.39245   1.00
C6       0.41809    0.84057    0.60054   1.00
H2       0.36758    0.74642    0.35558   1.00
H2       0.37114    0.78750    0.64020   1.00
H2       0.38149    0.79268    0.37330   1.00
H2       0.39277    0.74471    0.62154   1.00
H2       0.41410    0.76553    0.34459   1.00
H2       0.42098    0.77779    0.64863   1.00
H2       0.46619    0.77144    0.39955   1.00
H2       0.47027    0.78178    0.59098   1.00
H2       0.43256    0.79858    0.42725   1.00
H2       0.44110    0.74851    0.56494   1.00
H2       0.45435    0.75641    0.44745   1.00
H2       0.45324    0.79398    0.54385   1.00
H2       0.40328    0.68471    0.38042   1.00
H2       0.39288    0.85482    0.61383   1.00
H2       0.44854    0.70695    0.37025   1.00
H2       0.44206    0.84178    0.62149   1.00
H2       0.43896    0.68872    0.41739   1.00
H2       0.42668    0.85758    0.57502   1.00
C4       0.25465    0.98025    0.24886   1.00
C4       0.25585    1.02191    0.24985   1.00
C3       0.24856    0.95897    0.21366   1.00
C3       0.25514    1.04504    0.21531   1.00
C3       0.25964    0.95854    0.28415   1.00
C3       0.25788    1.04170    0.28653   1.00
C2       0.25415    0.89595    0.24651   1.00
C2       0.25632    1.10622    0.25189   1.00
C3       0.24849    0.91811    0.21241   1.00
C3       0.25517    1.08591    0.21622   1.00
C3       0.25960    0.91696    0.28159   1.00
C3       0.25764    1.08336    0.28621   1.00
H1       0.24354    0.97237    0.18767   1.00
H1       0.25497    1.03306    0.18816   1.00
C5       0.26426    0.97835    0.32073   1.00
C5       0.26032    1.01998    0.32222   1.00
H1       0.24410    0.90451    0.18607   1.00
H1       0.25447    1.10091    0.19028   1.00
H1       0.26332    0.90052    0.30601   1.00
H1       0.25879    1.09848    0.31171   1.00
C6       0.27365    0.95515    0.35714   1.00
C6       0.25826    1.04119    0.36093   1.00
H2       0.29583    0.93345    0.35020   1.00
H2       0.23526    1.06310    0.35955   1.00
H2       0.28858    0.97286    0.37881   1.00
H2       0.24770    1.02228    0.38411   1.00
C6       0.23679    0.93606    0.37637   1.00
C6       0.29824    1.05942    0.37365   1.00
H2       0.21854    0.92292    0.35374   1.00
H2       0.31184    1.07383    0.34865   1.00
C6       0.24376    0.90459    0.40874   1.00
C6       0.29781    1.08911    0.40837   1.00
H2       0.21912    0.95949    0.38884   1.00
H2       0.31786    1.03546    0.38123   1.00
C6       0.26327    0.86735    0.39194   1.00
C6       0.27561    1.12708    0.39764   1.00
C6       0.26908    0.92074    0.44253   1.00
C6       0.27941    1.07107    0.44552   1.00
C6       0.20363    0.89245    0.42592   1.00
C6       0.34057    1.10054    0.41809   1.00
H2       0.24642    0.85558    0.36758   1.00
H2       0.28750    1.14020    0.37114   1.00
H2       0.29268    0.87330    0.38149   1.00
H2       0.24471    1.12154    0.39277   1.00
H2       0.26553    0.84459    0.41410   1.00
H2       0.27779    1.14863    0.42098   1.00
H2       0.27144    0.89955    0.46619   1.00
H2       0.28178    1.09098    0.47027   1.00
H2       0.29858    0.92725    0.43256   1.00
H2       0.24851    1.06494    0.44110   1.00
H2       0.25641    0.94745    0.45435   1.00
H2       0.29398    1.04385    0.45324   1.00
H2       0.18471    0.88042    0.40328   1.00
H2       0.35482    1.11383    0.39288   1.00
H2       0.20695    0.87025    0.44854   1.00
H2       0.34178    1.12149    0.44206   1.00
H2       0.18872    0.91739    0.43896   1.00
H2       0.35758    1.07502    0.42668   1.00
C4       0.01975    0.74886    0.24535   1.00
C4       -0.02191   0.74985    0.24415   1.00
C3       0.04103    0.71366    0.25144   1.00
C3       -0.04504   0.71531    0.24486   1.00
C3       0.04146    0.78415    0.24036   1.00
C3       -0.04170   0.78653    0.24212   1.00
C2       0.10405    0.74651    0.24585   1.00
C2       -0.10622   0.75189    0.24368   1.00
C3       0.08189    0.71241    0.25151   1.00
C3       -0.08591   0.71622    0.24483   1.00
C3       0.08304    0.78159    0.24040   1.00
C3       -0.08336   0.78621    0.24236   1.00
H1       0.02763    0.68767    0.25646   1.00
H1       -0.03306   0.68816    0.24503   1.00
C5       0.02165    0.82073    0.23574   1.00
C5       -0.01998   0.82222    0.23968   1.00
H1       0.09549    0.68607    0.25590   1.00
H1       -0.10091   0.69028    0.24553   1.00
H1       0.09948    0.80601    0.23668   1.00
H1       -0.09848   0.81171    0.24121   1.00
C6       0.04485    0.85714    0.22635   1.00
C6       -0.04119   0.86093    0.24174   1.00
H2       0.06655    0.85020    0.20417   1.00
H2       -0.06310   0.85955    0.26474   1.00
H2       0.02714    0.87881    0.21142   1.00
H2       -0.02228   0.88411    0.25230   1.00
C6       0.06394    0.87637    0.26321   1.00
C6       -0.05942   0.87365    0.20176   1.00
H2       0.07708    0.85374    0.28146   1.00
H2       -0.07383   0.84865    0.18816   1.00
C6       0.09541    0.90874    0.25624   1.00
C6       -0.08911   0.90837    0.20219   1.00
H2       0.04051    0.88884    0.28088   1.00
H2       -0.03546   0.88123    0.18214   1.00
C6       0.13265    0.89194    0.23673   1.00
C6       -0.12708   0.89764    0.22439   1.00
C6       0.07926    0.94253    0.23092   1.00
C6       -0.07107   0.94552    0.22059   1.00
C6       0.10755    0.92592    0.29637   1.00
C6       -0.10054   0.91809    0.15943   1.00
H2       0.14442    0.86758    0.25358   1.00
H2       -0.14020   0.87114    0.21250   1.00
H2       0.12670    0.88149    0.20732   1.00
H2       -0.12154   0.89277    0.25529   1.00
H2       0.15541    0.91410    0.23447   1.00
H2       -0.14863   0.92098    0.22221   1.00
H2       0.10045    0.96619    0.22856   1.00
H2       -0.09098   0.97027    0.21822   1.00
H2       0.07275    0.93256    0.20142   1.00
H2       -0.06494   0.94110    0.25149   1.00
H2       0.05255    0.95435    0.24359   1.00
H2       -0.04385   0.95324    0.20602   1.00
H2       0.11958    0.90328    0.31529   1.00
H2       -0.11383   0.89288    0.14518   1.00
H2       0.12975    0.94854    0.29305   1.00
H2       -0.12149   0.94206    0.15822   1.00
H2       0.08261    0.93896    0.31128   1.00
H2       -0.07502   0.92668    0.14242   1.00
C4       0.48025    0.74886    0.25465   1.00
C4       0.52191    0.74985    0.25585   1.00
C3       0.45897    0.71366    0.24856   1.00
C3       0.54504    0.71531    0.25514   1.00
C3       0.45854    0.78415    0.25964   1.00
C3       0.54170    0.78653    0.25788   1.00
C2       0.39595    0.74651    0.25415   1.00
C2       0.60622    0.75189    0.25632   1.00
C3       0.41811    0.71241    0.24849   1.00
C3       0.58591    0.71622    0.25517   1.00
C3       0.41696    0.78159    0.25960   1.00
C3       0.58336    0.78621    0.25764   1.00
H1       0.47237    0.68767    0.24354   1.00
H1       0.53306    0.68816    0.25497   1.00
C5       0.47835    0.82073    0.26426   1.00
C5       0.51998    0.82222    0.26032   1.00
H1       0.40451    0.68607    0.24410   1.00
H1       0.60091    0.69028    0.25447   1.00
H1       0.40052    0.80601    0.26332   1.00
H1       0.59848    0.81171    0.25879   1.00
C6       0.45515    0.85714    0.27365   1.00
C6       0.54119    0.86093    0.25826   1.00
H2       0.43345    0.85020    0.29583   1.00
H2       0.56310    0.85955    0.23526   1.00
H2       0.47286    0.87881    0.28858   1.00
H2       0.52228    0.88411    0.24770   1.00
C6       0.43606    0.87637    0.23679   1.00
C6       0.55942    0.87365    0.29824   1.00
H2       0.42292    0.85374    0.21854   1.00
H2       0.57383    0.84865    0.31184   1.00
C6       0.40459    0.90874    0.24376   1.00
C6       0.58911    0.90837    0.29781   1.00
H2       0.45949    0.88884    0.21912   1.00
H2       0.53546    0.88123    0.31786   1.00
C6       0.36735    0.89194    0.26327   1.00
C6       0.62708    0.89764    0.27561   1.00
C6       0.42074    0.94253    0.26908   1.00
C6       0.57107    0.94552    0.27941   1.00
C6       0.39245    0.92592    0.20363   1.00
C6       0.60054    0.91809    0.34057   1.00
H2       0.35558    0.86758    0.24642   1.00
H2       0.64020    0.87114    0.28750   1.00
H2       0.37330    0.88149    0.29268   1.00
H2       0.62154    0.89277    0.24471   1.00
H2       0.34459    0.91410    0.26553   1.00
H2       0.64863    0.92098    0.27779   1.00
H2       0.39955    0.96619    0.27144   1.00
H2       0.59098    0.97027    0.28178   1.00
H2       0.42725    0.93256    0.29858   1.00
H2       0.56494    0.94110    0.24851   1.00
H2       0.44745    0.95435    0.25641   1.00
H2       0.54385    0.95324    0.29398   1.00
H2       0.38042    0.90328    0.18471   1.00
H2       0.61383    0.89288    0.35482   1.00
H2       0.37025    0.94854    0.20695   1.00
H2       0.62149    0.94206    0.34178   1.00
H2       0.41739    0.93896    0.18872   1.00
H2       0.57502    0.92668    0.35758   1.00
C4       0.24535    0.51975    0.24886   1.00
C4       0.24415    0.47809    0.24985   1.00
C3       0.25144    0.54103    0.21366   1.00
C3       0.24486    0.45496    0.21531   1.00
C3       0.24036    0.54146    0.28415   1.00
C3       0.24212    0.45830    0.28653   1.00
C2       0.24585    0.60405    0.24651   1.00
C2       0.24368    0.39378    0.25189   1.00
C3       0.25151    0.58189    0.21241   1.00
C3       0.24483    0.41409    0.21622   1.00
C3       0.24040    0.58304    0.28159   1.00
C3       0.24236    0.41664    0.28621   1.00
H1       0.25646    0.52763    0.18767   1.00
H1       0.24503    0.46694    0.18816   1.00
C5       0.23574    0.52165    0.32073   1.00
C5       0.23968    0.48002    0.32222   1.00
H1       0.25590    0.59549    0.18607   1.00
H1       0.24553    0.39909    0.19028   1.00
H1       0.23668    0.59948    0.30601   1.00
H1       0.24121    0.40152    0.31171   1.00
C6       0.22635    0.54485    0.35714   1.00
C6       0.24174    0.45881    0.36093   1.00
H2       0.20417    0.56655    0.35020   1.00
H2       0.26474    0.43690    0.35955   1.00
H2       0.21142    0.52714    0.37881   1.00
H2       0.25230    0.47772    0.38411   1.00
C6       0.26321    0.56394    0.37637   1.00
C6       0.20176    0.44058    0.37365   1.00
H2       0.28146    0.57708    0.35374   1.00
H2       0.18816    0.42617    0.34865   1.00
C6       0.25624    0.59541    0.40874   1.00
C6       0.20219    0.41089    0.40837   1.00
H2       0.28088    0.54051    0.38884   1.00
H2       0.18214    0.46454    0.38123   1.00
C6       0.23673    0.63265    0.39194   1.00
C6       0.22439    0.37292    0.39764   1.00
C6       0.23092    0.57926    0.44253   1.00
C6       0.22059    0.42893    0.44552   1.00
C6       0.29637    0.60755    0.42592   1.00
C6       0.15943    0.39946    0.41809   1.00
H2       0.25358    0.64442    0.36758   1.00
H2       0.21250    0.35980    0.37114   1.00
H2       0.20732    0.62670    0.38149   1.00
H2       0.25529    0.37846    0.39277   1.00
H2       0.23447    0.65541    0.41410   1.00
H2       0.22221    0.35137    0.42098   1.00
H2       0.22856    0.60045    0.46619   1.00
H2       0.21822    0.40902    0.47027   1.00
H2       0.20142    0.57275    0.43256   1.00
H2       0.25149    0.43506    0.44110   1.00
H2       0.24359    0.55255    0.45435   1.00
H2       0.20602    0.45615    0.45324   1.00
H2       0.31529    0.61958    0.40328   1.00
H2       0.14518    0.38617    0.39288   1.00
H2       0.29305    0.62975    0.44854   1.00
H2       0.15822    0.37851    0.44206   1.00
H2       0.31128    0.58261    0.43896   1.00
H2       0.14242    0.42498    0.42668   1.00
C4       0.24886    0.74535    0.01975   1.00
C4       0.24985    0.74415    -0.02191   1.00
C3       0.21366    0.75144    0.04103   1.00
C3       0.21531    0.74486    -0.04504   1.00
C3       0.28415    0.74036    0.04146   1.00
C3       0.28653    0.74212    -0.04170   1.00
C2       0.24651    0.74585    0.10405   1.00
C2       0.25189    0.74368    -0.10622   1.00
C3       0.21241    0.75151    0.08189   1.00
C3       0.21622    0.74483    -0.08591   1.00
C3       0.28159    0.74040    0.08304   1.00
C3       0.28621    0.74236    -0.08336   1.00
H1       0.18767    0.75646    0.02763   1.00
H1       0.18816    0.74503    -0.03306   1.00
C5       0.32073    0.73574    0.02165   1.00
C5       0.32222    0.73968    -0.01998   1.00
H1       0.18607    0.75590    0.09549   1.00
H1       0.19028    0.74553    -0.10091   1.00
H1       0.30601    0.73668    0.09948   1.00
H1       0.31171    0.74121    -0.09848   1.00
C6       0.35714    0.72635    0.04485   1.00
C6       0.36093    0.74174    -0.04119   1.00
H2       0.35020    0.70417    0.06655   1.00
H2       0.35955    0.76474    -0.06310   1.00
H2       0.37881    0.71142    0.02714   1.00
H2       0.38411    0.75230    -0.02228   1.00
C6       0.37637    0.76321    0.06394   1.00
C6       0.37365    0.70176    -0.05942   1.00
H2       0.35374    0.78146    0.07708   1.00
H2       0.34865    0.68816    -0.07383   1.00
C6       0.40874    0.75624    0.09541   1.00
C6       0.40837    0.70219    -0.08911   1.00
H2       0.38884    0.78088    0.04051   1.00
H2       0.38123    0.68214    -0.03546   1.00
C6       0.39194    0.73673    0.13265   1.00
C6       0.39764    0.72439    -0.12708   1.00
C6       0.44253    0.73092    0.07926   1.00
C6       0.44552    0.72059    -0.07107   1.00
C6       0.42592    0.79637    0.10755   1.00
C6       0.41809    0.65943    -0.10054   1.00
H2       0.36758    0.75358    0.14442   1.00
H2       0.37114    0.71250    -0.14020   1.00
H2       0.38149    0.70732    0.12670   1.00
H2       0.39277    0.75529    -0.12154   1.00
H2       0.41410    0.73447    0.15541   1.00
H2       0.42098    0.72221    -0.14863   1.00
H2       0.46619    0.72856    0.10045   1.00
H2       0.47027    0.71822    -0.09098   1.00
H2       0.43256    0.70142    0.07275   1.00
H2       0.44110    0.75149    -0.06494   1.00
H2       0.45435    0.74359    0.05255   1.00
H2       0.45324    0.70602    -0.04385   1.00
H2       0.40328    0.81529    0.11958   1.00
H2       0.39288    0.64518    -0.11383   1.00
H2       0.44854    0.79305    0.12975   1.00
H2       0.44206    0.65822    -0.12149   1.00
H2       0.43896    0.81128    0.08261   1.00
H2       0.42668    0.64242    -0.07502   1.00
C4       0.74886    0.25465    0.48025   1.00
C4       0.74985    0.25585    0.52191   1.00
C3       0.71366    0.24856    0.45897   1.00
C3       0.71531    0.25514    0.54504   1.00
C3       0.78415    0.25964    0.45854   1.00
C3       0.78653    0.25788    0.54170   1.00
C2       0.74651    0.25415    0.39595   1.00
C2       0.75189    0.25632    0.60622   1.00
C3       0.71241    0.24849    0.41811   1.00
C3       0.71622    0.25517    0.58591   1.00
C3       0.78159    0.25960    0.41696   1.00
C3       0.78621    0.25764    0.58336   1.00
H1       0.68767    0.24354    0.47237   1.00
H1       0.68816    0.25497    0.53306   1.00
C5       0.82073    0.26426    0.47835   1.00
C5       0.82222    0.26032    0.51998   1.00
H1       0.68607    0.24410    0.40451   1.00
H1       0.69028    0.25447    0.60091   1.00
H1       0.80601    0.26332    0.40052   1.00
H1       0.81171    0.25879    0.59848   1.00
C6       0.85714    0.27365    0.45515   1.00
C6       0.86093    0.25826    0.54119   1.00
H2       0.85020    0.29583    0.43345   1.00
H2       0.85955    0.23526    0.56310   1.00
H2       0.87881    0.28858    0.47286   1.00
H2       0.88411    0.24770    0.52228   1.00
C6       0.87637    0.23679    0.43606   1.00
C6       0.87365    0.29824    0.55942   1.00
H2       0.85374    0.21854    0.42292   1.00
H2       0.84865    0.31184    0.57383   1.00
C6       0.90874    0.24376    0.40459   1.00
C6       0.90837    0.29781    0.58911   1.00
H2       0.88884    0.21912    0.45949   1.00
H2       0.88123    0.31786    0.53546   1.00
C6       0.89194    0.26327    0.36735   1.00
C6       0.89764    0.27561    0.62708   1.00
C6       0.94253    0.26908    0.42074   1.00
C6       0.94552    0.27941    0.57107   1.00
C6       0.92592    0.20363    0.39245   1.00
C6       0.91809    0.34057    0.60054   1.00
H2       0.86758    0.24642    0.35558   1.00
H2       0.87114    0.28750    0.64020   1.00
H2       0.88149    0.29268    0.37330   1.00
H2       0.89277    0.24471    0.62154   1.00
H2       0.91410    0.26553    0.34459   1.00
H2       0.92098    0.27779    0.64863   1.00
H2       0.96619    0.27144    0.39955   1.00
H2       0.97027    0.28178    0.59098   1.00
H2       0.93256    0.29858    0.42725   1.00
H2       0.94110    0.24851    0.56494   1.00
H2       0.95435    0.25641    0.44745   1.00
H2       0.95324    0.29398    0.54385   1.00
H2       0.90328    0.18471    0.38042   1.00
H2       0.89288    0.35482    0.61383   1.00
H2       0.94854    0.20695    0.37025   1.00
H2       0.94206    0.34178    0.62149   1.00
H2       0.93896    0.18872    0.41739   1.00
H2       0.92668    0.35758    0.57502   1.00
C4       0.75465    0.48025    0.24886   1.00
C4       0.75585    0.52191    0.24985   1.00
C3       0.74856    0.45897    0.21366   1.00
C3       0.75514    0.54504    0.21531   1.00
C3       0.75964    0.45854    0.28415   1.00
C3       0.75788    0.54170    0.28653   1.00
C2       0.75415    0.39595    0.24651   1.00
C2       0.75632    0.60622    0.25189   1.00
C3       0.74849    0.41811    0.21241   1.00
C3       0.75517    0.58591    0.21622   1.00
C3       0.75960    0.41696    0.28159   1.00
C3       0.75764    0.58336    0.28621   1.00
H1       0.74354    0.47237    0.18767   1.00
H1       0.75497    0.53306    0.18816   1.00
C5       0.76426    0.47835    0.32073   1.00
C5       0.76032    0.51998    0.32222   1.00
H1       0.74410    0.40451    0.18607   1.00
H1       0.75447    0.60091    0.19028   1.00
H1       0.76332    0.40052    0.30601   1.00
H1       0.75879    0.59848    0.31171   1.00
C6       0.77365    0.45515    0.35714   1.00
C6       0.75826    0.54119    0.36093   1.00
H2       0.79583    0.43345    0.35020   1.00
H2       0.73526    0.56310    0.35955   1.00
H2       0.78858    0.47286    0.37881   1.00
H2       0.74770    0.52228    0.38411   1.00
C6       0.73679    0.43606    0.37637   1.00
C6       0.79824    0.55942    0.37365   1.00
H2       0.71854    0.42292    0.35374   1.00
H2       0.81184    0.57383    0.34865   1.00
C6       0.74376    0.40459    0.40874   1.00
C6       0.79781    0.58911    0.40837   1.00
H2       0.71912    0.45949    0.38884   1.00
H2       0.81786    0.53546    0.38123   1.00
C6       0.76327    0.36735    0.39194   1.00
C6       0.77561    0.62708    0.39764   1.00
C6       0.76908    0.42074    0.44253   1.00
C6       0.77941    0.57107    0.44552   1.00
C6       0.70363    0.39245    0.42592   1.00
C6       0.84057    0.60054    0.41809   1.00
H2       0.74642    0.35558    0.36758   1.00
H2       0.78750    0.64020    0.37114   1.00
H2       0.79268    0.37330    0.38149   1.00
H2       0.74471    0.62154    0.39277   1.00
H2       0.76553    0.34459    0.41410   1.00
H2       0.77779    0.64863    0.42098   1.00
H2       0.77144    0.39955    0.46619   1.00
H2       0.78178    0.59098    0.47027   1.00
H2       0.79858    0.42725    0.43256   1.00
H2       0.74851    0.56494    0.44110   1.00
H2       0.75641    0.44745    0.45435   1.00
H2       0.79398    0.54385    0.45324   1.00
H2       0.68471    0.38042    0.40328   1.00
H2       0.85482    0.61383    0.39288   1.00
H2       0.70695    0.37025    0.44854   1.00
H2       0.84178    0.62149    0.44206   1.00
H2       0.68872    0.41739    0.43896   1.00
H2       0.85758    0.57502    0.42668   1.00
C4       0.51975    0.24886    0.24535   1.00
C4       0.47809    0.24985    0.24415   1.00
C3       0.54103    0.21366    0.25144   1.00
C3       0.45496    0.21531    0.24486   1.00
C3       0.54146    0.28415    0.24036   1.00
C3       0.45830    0.28653    0.24212   1.00
C2       0.60405    0.24651    0.24585   1.00
C2       0.39378    0.25189    0.24368   1.00
C3       0.58189    0.21241    0.25151   1.00
C3       0.41409    0.21622    0.24483   1.00
C3       0.58304    0.28159    0.24040   1.00
C3       0.41664    0.28621    0.24236   1.00
H1       0.52763    0.18767    0.25646   1.00
H1       0.46694    0.18816    0.24503   1.00
C5       0.52165    0.32073    0.23574   1.00
C5       0.48002    0.32222    0.23968   1.00
H1       0.59549    0.18607    0.25590   1.00
H1       0.39909    0.19028    0.24553   1.00
H1       0.59948    0.30601    0.23668   1.00
H1       0.40152    0.31171    0.24121   1.00
C6       0.54485    0.35714    0.22635   1.00
C6       0.45881    0.36093    0.24174   1.00
H2       0.56655    0.35020    0.20417   1.00
H2       0.43690    0.35955    0.26474   1.00
H2       0.52714    0.37881    0.21142   1.00
H2       0.47772    0.38411    0.25230   1.00
C6       0.56394    0.37637    0.26321   1.00
C6       0.44058    0.37365    0.20176   1.00
H2       0.57708    0.35374    0.28146   1.00
H2       0.42617    0.34865    0.18816   1.00
C6       0.59541    0.40874    0.25624   1.00
C6       0.41089    0.40837    0.20219   1.00
H2       0.54051    0.38884    0.28088   1.00
H2       0.46454    0.38123    0.18214   1.00
C6       0.63265    0.39194    0.23673   1.00
C6       0.37292    0.39764    0.22439   1.00
C6       0.57926    0.44253    0.23092   1.00
C6       0.42893    0.44552    0.22059   1.00
C6       0.60755    0.42592    0.29637   1.00
C6       0.39946    0.41809    0.15943   1.00
H2       0.64442    0.36758    0.25358   1.00
H2       0.35980    0.37114    0.21250   1.00
H2       0.62670    0.38149    0.20732   1.00
H2       0.37846    0.39277    0.25529   1.00
H2       0.65541    0.41410    0.23447   1.00
H2       0.35137    0.42098    0.22221   1.00
H2       0.60045    0.46619    0.22856   1.00
H2       0.40902    0.47027    0.21822   1.00
H2       0.57275    0.43256    0.20142   1.00
H2       0.43506    0.44110    0.25149   1.00
H2       0.55255    0.45435    0.24359   1.00
H2       0.45615    0.45324    0.20602   1.00
H2       0.61958    0.40328    0.31529   1.00
H2       0.38617    0.39288    0.14518   1.00
H2       0.62975    0.44854    0.29305   1.00
H2       0.37851    0.44206    0.15822   1.00
H2       0.58261    0.43896    0.31128   1.00
H2       0.42498    0.42668    0.14242   1.00
C4       0.98025    0.24886    0.25465   1.00
C4       1.02191    0.24985    0.25585   1.00
C3       0.95897    0.21366    0.24856   1.00
C3       1.04504    0.21531    0.25514   1.00
C3       0.95854    0.28415    0.25964   1.00
C3       1.04170    0.28653    0.25788   1.00
C2       0.89595    0.24651    0.25415   1.00
C2       1.10622    0.25189    0.25632   1.00
C3       0.91811    0.21241    0.24849   1.00
C3       1.08591    0.21622    0.25517   1.00
C3       0.91696    0.28159    0.25960   1.00
C3       1.08336    0.28621    0.25764   1.00
H1       0.97237    0.18767    0.24354   1.00
H1       1.03306    0.18816    0.25497   1.00
C5       0.97835    0.32073    0.26426   1.00
C5       1.01998    0.32222    0.26032   1.00
H1       0.90451    0.18607    0.24410   1.00
H1       1.10091    0.19028    0.25447   1.00
H1       0.90052    0.30601    0.26332   1.00
H1       1.09848    0.31171    0.25879   1.00
C6       0.95515    0.35714    0.27365   1.00
C6       1.04119    0.36093    0.25826   1.00
H2       0.93345    0.35020    0.29583   1.00
H2       1.06310    0.35955    0.23526   1.00
H2       0.97286    0.37881    0.28858   1.00
H2       1.02228    0.38411    0.24770   1.00
C6       0.93606    0.37637    0.23679   1.00
C6       1.05942    0.37365    0.29824   1.00
H2       0.92292    0.35374    0.21854   1.00
H2       1.07383    0.34865    0.31184   1.00
C6       0.90459    0.40874    0.24376   1.00
C6       1.08911    0.40837    0.29781   1.00
H2       0.95949    0.38884    0.21912   1.00
H2       1.03546    0.38123    0.31786   1.00
C6       0.86735    0.39194    0.26327   1.00
C6       1.12708    0.39764    0.27561   1.00
C6       0.92074    0.44253    0.26908   1.00
C6       1.07107    0.44552    0.27941   1.00
C6       0.89245    0.42592    0.20363   1.00
C6       1.10054    0.41809    0.34057   1.00
H2       0.85558    0.36758    0.24642   1.00
H2       1.14020    0.37114    0.28750   1.00
H2       0.87330    0.38149    0.29268   1.00
H2       1.12154    0.39277    0.24471   1.00
H2       0.84459    0.41410    0.26553   1.00
H2       1.14863    0.42098    0.27779   1.00
H2       0.89955    0.46619    0.27144   1.00
H2       1.09098    0.47027    0.28178   1.00
H2       0.92725    0.43256    0.29858   1.00
H2       1.06494    0.44110    0.24851   1.00
H2       0.94745    0.45435    0.25641   1.00
H2       1.04385    0.45324    0.29398   1.00
H2       0.88042    0.40328    0.18471   1.00
H2       1.11383    0.39288    0.35482   1.00
H2       0.87025    0.44854    0.20695   1.00
H2       1.12149    0.44206    0.34178   1.00
H2       0.91739    0.43896    0.18872   1.00
H2       1.07502    0.42668    0.35758   1.00
C4       0.74535    0.01975    0.24886   1.00
C4       0.74415    -0.02191   0.24985   1.00
C3       0.75144    0.04103    0.21366   1.00
C3       0.74486    -0.04504   0.21531   1.00
C3       0.74036    0.04146    0.28415   1.00
C3       0.74212    -0.04170   0.28653   1.00
C2       0.74585    0.10405    0.24651   1.00
C2       0.74368    -0.10622   0.25189   1.00
C3       0.75151    0.08189    0.21241   1.00
C3       0.74483    -0.08591   0.21622   1.00
C3       0.74040    0.08304    0.28159   1.00
C3       0.74236    -0.08336   0.28621   1.00
H1       0.75646    0.02763    0.18767   1.00
H1       0.74503    -0.03306   0.18816   1.00
C5       0.73574    0.02165    0.32073   1.00
C5       0.73968    -0.01998   0.32222   1.00
H1       0.75590    0.09549    0.18607   1.00
H1       0.74553    -0.10091   0.19028   1.00
H1       0.73668    0.09948    0.30601   1.00
H1       0.74121    -0.09848   0.31171   1.00
C6       0.72635    0.04485    0.35714   1.00
C6       0.74174    -0.04119   0.36093   1.00
H2       0.70417    0.06655    0.35020   1.00
H2       0.76474    -0.06310   0.35955   1.00
H2       0.71142    0.02714    0.37881   1.00
H2       0.75230    -0.02228   0.38411   1.00
C6       0.76321    0.06394    0.37637   1.00
C6       0.70176    -0.05942   0.37365   1.00
H2       0.78146    0.07708    0.35374   1.00
H2       0.68816    -0.07383   0.34865   1.00
C6       0.75624    0.09541    0.40874   1.00
C6       0.70219    -0.08911   0.40837   1.00
H2       0.78088    0.04051    0.38884   1.00
H2       0.68214    -0.03546   0.38123   1.00
C6       0.73673    0.13265    0.39194   1.00
C6       0.72439    -0.12708   0.39764   1.00
C6       0.73092    0.07926    0.44253   1.00
C6       0.72059    -0.07107   0.44552   1.00
C6       0.79637    0.10755    0.42592   1.00
C6       0.65943    -0.10054   0.41809   1.00
H2       0.75358    0.14442    0.36758   1.00
H2       0.71250    -0.14020   0.37114   1.00
H2       0.70732    0.12670    0.38149   1.00
H2       0.75529    -0.12154   0.39277   1.00
H2       0.73447    0.15541    0.41410   1.00
H2       0.72221    -0.14863   0.42098   1.00
H2       0.72856    0.10045    0.46619   1.00
H2       0.71822    -0.09098   0.47027   1.00
H2       0.70142    0.07275    0.43256   1.00
H2       0.75149    -0.06494   0.44110   1.00
H2       0.74359    0.05255    0.45435   1.00
H2       0.70602    -0.04385   0.45324   1.00
H2       0.81529    0.11958    0.40328   1.00
H2       0.64518    -0.11383   0.39288   1.00
H2       0.79305    0.12975    0.44854   1.00
H2       0.65822    -0.12149   0.44206   1.00
H2       0.81128    0.08261    0.43896   1.00
H2       0.64242    -0.07502   0.42668   1.00
C4       0.74886    0.24535    0.01975   1.00
C4       0.74985    0.24415    -0.02191   1.00
C3       0.71366    0.25144    0.04103   1.00
C3       0.71531    0.24486    -0.04504   1.00
C3       0.78415    0.24036    0.04146   1.00
C3       0.78653    0.24212    -0.04170   1.00
C2       0.74651    0.24585    0.10405   1.00
C2       0.75189    0.24368    -0.10622   1.00
C3       0.71241    0.25151    0.08189   1.00
C3       0.71622    0.24483    -0.08591   1.00
C3       0.78159    0.24040    0.08304   1.00
C3       0.78621    0.24236    -0.08336   1.00
H1       0.68767    0.25646    0.02763   1.00
H1       0.68816    0.24503    -0.03306   1.00
C5       0.82073    0.23574    0.02165   1.00
C5       0.82222    0.23968    -0.01998   1.00
H1       0.68607    0.25590    0.09549   1.00
H1       0.69028    0.24553    -0.10091   1.00
H1       0.80601    0.23668    0.09948   1.00
H1       0.81171    0.24121    -0.09848   1.00
C6       0.85714    0.22635    0.04485   1.00
C6       0.86093    0.24174    -0.04119   1.00
H2       0.85020    0.20417    0.06655   1.00
H2       0.85955    0.26474    -0.06310   1.00
H2       0.87881    0.21142    0.02714   1.00
H2       0.88411    0.25230    -0.02228   1.00
C6       0.87637    0.26321    0.06394   1.00
C6       0.87365    0.20176    -0.05942   1.00
H2       0.85374    0.28146    0.07708   1.00
H2       0.84865    0.18816    -0.07383   1.00
C6       0.90874    0.25624    0.09541   1.00
C6       0.90837    0.20219    -0.08911   1.00
H2       0.88884    0.28088    0.04051   1.00
H2       0.88123    0.18214    -0.03546   1.00
C6       0.89194    0.23673    0.13265   1.00
C6       0.89764    0.22439    -0.12708   1.00
C6       0.94253    0.23092    0.07926   1.00
C6       0.94552    0.22059    -0.07107   1.00
C6       0.92592    0.29637    0.10755   1.00
C6       0.91809    0.15943    -0.10054   1.00
H2       0.86758    0.25358    0.14442   1.00
H2       0.87114    0.21250    -0.14020   1.00
H2       0.88149    0.20732    0.12670   1.00
H2       0.89277    0.25529    -0.12154   1.00
H2       0.91410    0.23447    0.15541   1.00
H2       0.92098    0.22221    -0.14863   1.00
H2       0.96619    0.22856    0.10045   1.00
H2       0.97027    0.21822    -0.09098   1.00
H2       0.93256    0.20142    0.07275   1.00
H2       0.94110    0.25149    -0.06494   1.00
H2       0.95435    0.24359    0.05255   1.00
H2       0.95324    0.20602    -0.04385   1.00
H2       0.90328    0.31529    0.11958   1.00
H2       0.89288    0.14518    -0.11383   1.00
H2       0.94854    0.29305    0.12975   1.00
H2       0.94206    0.15822    -0.12149   1.00
H2       0.93896    0.31128    0.08261   1.00
H2       0.92668    0.14242    -0.07502   1.00
C4       0.91386    0.91965    1.14525   1.00
C4       0.91485    0.92085    1.18691   1.00
C3       0.87866    0.91356    1.12397   1.00
C3       0.88031    0.92014    1.21004   1.00
C3       0.94915    0.92464    1.12354   1.00
C3       0.95153    0.92288    1.20670   1.00
C2       0.91151    0.91915    1.06095   1.00
C2       0.91689    0.92132    1.27122   1.00
C3       0.87741    0.91349    1.08311   1.00
C3       0.88122    0.92017    1.25091   1.00
C3       0.94659    0.92460    1.08196   1.00
C3       0.95121    0.92264    1.24836   1.00
H1       0.85267    0.90854    1.13737   1.00
H1       0.85316    0.91997    1.19806   1.00
C5       0.98573    0.92926    1.14335   1.00
C5       0.98722    0.92532    1.18498   1.00
H1       0.85107    0.90910    1.06951   1.00
H1       0.85528    0.91947    1.26591   1.00
H1       0.97101    0.92832    1.06552   1.00
H1       0.97671    0.92379    1.26348   1.00
C6       1.02214    0.93865    1.12015   1.00
C6       1.02593    0.92326    1.20619   1.00
H2       1.01520    0.96083    1.09845   1.00
H2       1.02455    0.90026    1.22810   1.00
H2       1.04381    0.95358    1.13786   1.00
H2       1.04911    0.91270    1.18728   1.00
C6       1.04137    0.90179    1.10106   1.00
C6       1.03865    0.96324    1.22442   1.00
H2       1.01874    0.88354    1.08792   1.00
H2       1.01365    0.97684    1.23883   1.00
C6       1.07374    0.90876    1.06959   1.00
C6       1.07337    0.96281    1.25411   1.00
H2       1.05384    0.88412    1.12449   1.00
H2       1.04623    0.98286    1.20046   1.00
C6       1.05694    0.92827    1.03235   1.00
C6       1.06264    0.94061    1.29208   1.00
C6       1.10753    0.93408    1.08574   1.00
C6       1.11052    0.94441    1.23607   1.00
C6       1.09092    0.86863    1.05745   1.00
C6       1.08309    1.00557    1.26554   1.00
H2       1.03258    0.91142    1.02058   1.00
H2       1.03614    0.95250    1.30520   1.00
H2       1.04649    0.95768    1.03830   1.00
H2       1.05777    0.90971    1.28654   1.00
H2       1.07910    0.93053    1.00959   1.00
H2       1.08598    0.94279    1.31363   1.00
H2       1.13119    0.93644    1.06455   1.00
H2       1.13527    0.94678    1.25598   1.00
H2       1.09756    0.96358    1.09225   1.00
H2       1.10610    0.91351    1.22994   1.00
H2       1.11935    0.92141    1.11245   1.00
H2       1.11824    0.95898    1.20885   1.00
H2       1.06828    0.84971    1.04542   1.00
H2       1.05788    1.01982    1.27883   1.00
H2       1.11354    0.87195    1.03525   1.00
H2       1.10706    1.00678    1.28649   1.00
H2       1.10396    0.85372    1.08239   1.00
H2       1.09168    1.02258    1.24002   1.00
C4       0.91965    1.14525    0.91386   1.00
C4       0.92085    1.18691    0.91485   1.00
C3       0.91356    1.12397    0.87866   1.00
C3       0.92014    1.21004    0.88031   1.00
C3       0.92464    1.12354    0.94915   1.00
C3       0.92288    1.20670    0.95153   1.00
C2       0.91915    1.06095    0.91151   1.00
C2       0.92132    1.27122    0.91689   1.00
C3       0.91349    1.08311    0.87741   1.00
C3       0.92017    1.25091    0.88122   1.00
C3       0.92460    1.08196    0.94659   1.00
C3       0.92264    1.24836    0.95121   1.00
H1       0.90854    1.13737    0.85267   1.00
H1       0.91997    1.19806    0.85316   1.00
C5       0.92926    1.14335    0.98573   1.00
C5       0.92532    1.18498    0.98722   1.00
H1       0.90910    1.06951    0.85107   1.00
H1       0.91947    1.26591    0.85528   1.00
H1       0.92832    1.06552    0.97101   1.00
H1       0.92379    1.26348    0.97671   1.00
C6       0.93865    1.12015    1.02214   1.00
C6       0.92326    1.20619    1.02593   1.00
H2       0.96083    1.09845    1.01520   1.00
H2       0.90026    1.22810    1.02455   1.00
H2       0.95358    1.13786    1.04381   1.00
H2       0.91270    1.18728    1.04911   1.00
C6       0.90179    1.10106    1.04137   1.00
C6       0.96324    1.22442    1.03865   1.00
H2       0.88354    1.08792    1.01874   1.00
H2       0.97684    1.23883    1.01365   1.00
C6       0.90876    1.06959    1.07374   1.00
C6       0.96281    1.25411    1.07337   1.00
H2       0.88412    1.12449    1.05384   1.00
H2       0.98286    1.20046    1.04623   1.00
C6       0.92827    1.03235    1.05694   1.00
C6       0.94061    1.29208    1.06264   1.00
C6       0.93408    1.08574    1.10753   1.00
C6       0.94441    1.23607    1.11052   1.00
C6       0.86863    1.05745    1.09092   1.00
C6       1.00557    1.26554    1.08309   1.00
H2       0.91142    1.02058    1.03258   1.00
H2       0.95250    1.30520    1.03614   1.00
H2       0.95768    1.03830    1.04649   1.00
H2       0.90971    1.28654    1.05777   1.00
H2       0.93053    1.00959    1.07910   1.00
H2       0.94279    1.31363    1.08598   1.00
H2       0.93644    1.06455    1.13119   1.00
H2       0.94678    1.25598    1.13527   1.00
H2       0.96358    1.09225    1.09756   1.00
H2       0.91351    1.22994    1.10610   1.00
H2       0.92141    1.11245    1.11935   1.00
H2       0.95898    1.20885    1.11824   1.00
H2       0.84971    1.04542    1.06828   1.00
H2       1.01982    1.27883    1.05788   1.00
H2       0.87195    1.03525    1.11354   1.00
H2       1.00678    1.28649    1.10706   1.00
H2       0.85372    1.08239    1.10396   1.00
H2       1.02258    1.24002    1.09168   1.00
C4       0.68475    0.91386    0.91035   1.00
C4       0.64309    0.91485    0.90915   1.00
C3       0.70603    0.87866    0.91644   1.00
C3       0.61996    0.88031    0.90986   1.00
C3       0.70646    0.94915    0.90536   1.00
C3       0.62330    0.95153    0.90712   1.00
C2       0.76905    0.91151    0.91085   1.00
C2       0.55878    0.91689    0.90868   1.00
C3       0.74689    0.87741    0.91651   1.00
C3       0.57909    0.88122    0.90983   1.00
C3       0.74804    0.94659    0.90540   1.00
C3       0.58164    0.95121    0.90736   1.00
H1       0.69263    0.85267    0.92146   1.00
H1       0.63194    0.85316    0.91003   1.00
C5       0.68665    0.98573    0.90074   1.00
C5       0.64502    0.98722    0.90468   1.00
H1       0.76049    0.85107    0.92090   1.00
H1       0.56409    0.85528    0.91053   1.00
H1       0.76448    0.97101    0.90168   1.00
H1       0.56652    0.97671    0.90621   1.00
C6       0.70985    1.02214    0.89135   1.00
C6       0.62381    1.02593    0.90674   1.00
H2       0.73155    1.01520    0.86917   1.00
H2       0.60190    1.02455    0.92974   1.00
H2       0.69214    1.04381    0.87642   1.00
H2       0.64272    1.04911    0.91730   1.00
C6       0.72894    1.04137    0.92821   1.00
C6       0.60558    1.03865    0.86676   1.00
H2       0.74208    1.01874    0.94646   1.00
H2       0.59117    1.01365    0.85316   1.00
C6       0.76041    1.07374    0.92124   1.00
C6       0.57589    1.07337    0.86719   1.00
H2       0.70551    1.05384    0.94588   1.00
H2       0.62954    1.04623    0.84714   1.00
C6       0.79765    1.05694    0.90173   1.00
C6       0.53792    1.06264    0.88939   1.00
C6       0.74426    1.10753    0.89592   1.00
C6       0.59393    1.11052    0.88559   1.00
C6       0.77255    1.09092    0.96137   1.00
C6       0.56446    1.08309    0.82443   1.00
H2       0.80942    1.03258    0.91858   1.00
H2       0.52480    1.03614    0.87750   1.00
H2       0.79170    1.04649    0.87232   1.00
H2       0.54346    1.05777    0.92029   1.00
H2       0.82041    1.07910    0.89947   1.00
H2       0.51637    1.08598    0.88721   1.00
H2       0.76545    1.13119    0.89356   1.00
H2       0.57402    1.13527    0.88322   1.00
H2       0.73775    1.09756    0.86642   1.00
H2       0.60006    1.10610    0.91649   1.00
H2       0.71755    1.11935    0.90859   1.00
H2       0.62115    1.11824    0.87102   1.00
H2       0.78458    1.06828    0.98029   1.00
H2       0.55117    1.05788    0.81018   1.00
H2       0.79475    1.11354    0.95805   1.00
H2       0.54351    1.10706    0.82322   1.00
H2       0.74761    1.10396    0.97628   1.00
H2       0.58998    1.09168    0.80742   1.00
C4       1.14525    0.91386    0.91965   1.00
C4       1.18691    0.91485    0.92085   1.00
C3       1.12397    0.87866    0.91356   1.00
C3       1.21004    0.88031    0.92014   1.00
C3       1.12354    0.94915    0.92464   1.00
C3       1.20670    0.95153    0.92288   1.00
C2       1.06095    0.91151    0.91915   1.00
C2       1.27122    0.91689    0.92132   1.00
C3       1.08311    0.87741    0.91349   1.00
C3       1.25091    0.88122    0.92017   1.00
C3       1.08196    0.94659    0.92460   1.00
C3       1.24836    0.95121    0.92264   1.00
H1       1.13737    0.85267    0.90854   1.00
H1       1.19806    0.85316    0.91997   1.00
C5       1.14335    0.98573    0.92926   1.00
C5       1.18498    0.98722    0.92532   1.00
H1       1.06951    0.85107    0.90910   1.00
H1       1.26591    0.85528    0.91947   1.00
H1       1.06552    0.97101    0.92832   1.00
H1       1.26348    0.97671    0.92379   1.00
C6       1.12015    1.02214    0.93865   1.00
C6       1.20619    1.02593    0.92326   1.00
H2       1.09845    1.01520    0.96083   1.00
H2       1.22810    1.02455    0.90026   1.00
H2       1.13786    1.04381    0.95358   1.00
H2       1.18728    1.04911    0.91270   1.00
C6       1.10106    1.04137    0.90179   1.00
C6       1.22442    1.03865    0.96324   1.00
H2       1.08792    1.01874    0.88354   1.00
H2       1.23883    1.01365    0.97684   1.00
C6       1.06959    1.07374    0.90876   1.00
C6       1.25411    1.07337    0.96281   1.00
H2       1.12449    1.05384    0.88412   1.00
H2       1.20046    1.04623    0.98286   1.00
C6       1.03235    1.05694    0.92827   1.00
C6       1.29208    1.06264    0.94061   1.00
C6       1.08574    1.10753    0.93408   1.00
C6       1.23607    1.11052    0.94441   1.00
C6       1.05745    1.09092    0.86863   1.00
C6       1.26554    1.08309    1.00557   1.00
H2       1.02058    1.03258    0.91142   1.00
H2       1.30520    1.03614    0.95250   1.00
H2       1.03830    1.04649    0.95768   1.00
H2       1.28654    1.05777    0.90971   1.00
H2       1.00959    1.07910    0.93053   1.00
H2       1.31363    1.08598    0.94279   1.00
H2       1.06455    1.13119    0.93644   1.00
H2       1.25598    1.13527    0.94678   1.00
H2       1.09225    1.09756    0.96358   1.00
H2       1.22994    1.10610    0.91351   1.00
H2       1.11245    1.11935    0.92141   1.00
H2       1.20885    1.11824    0.95898   1.00
H2       1.04542    1.06828    0.84971   1.00
H2       1.27883    1.05788    1.01982   1.00
H2       1.03525    1.11354    0.87195   1.00
H2       1.28649    1.10706    1.00678   1.00
H2       1.08239    1.10396    0.85372   1.00
H2       1.24002    1.09168    1.02258   1.00
C4       0.91035    0.68475    0.91386   1.00
C4       0.90915    0.64309    0.91485   1.00
C3       0.91644    0.70603    0.87866   1.00
C3       0.90986    0.61996    0.88031   1.00
C3       0.90536    0.70646    0.94915   1.00
C3       0.90712    0.62330    0.95153   1.00
C2       0.91085    0.76905    0.91151   1.00
C2       0.90868    0.55878    0.91689   1.00
C3       0.91651    0.74689    0.87741   1.00
C3       0.90983    0.57909    0.88122   1.00
C3       0.90540    0.74804    0.94659   1.00
C3       0.90736    0.58164    0.95121   1.00
H1       0.92146    0.69263    0.85267   1.00
H1       0.91003    0.63194    0.85316   1.00
C5       0.90074    0.68665    0.98573   1.00
C5       0.90468    0.64502    0.98722   1.00
H1       0.92090    0.76049    0.85107   1.00
H1       0.91053    0.56409    0.85528   1.00
H1       0.90168    0.76448    0.97101   1.00
H1       0.90621    0.56652    0.97671   1.00
C6       0.89135    0.70985    1.02214   1.00
C6       0.90674    0.62381    1.02593   1.00
H2       0.86917    0.73155    1.01520   1.00
H2       0.92974    0.60190    1.02455   1.00
H2       0.87642    0.69214    1.04381   1.00
H2       0.91730    0.64272    1.04911   1.00
C6       0.92821    0.72894    1.04137   1.00
C6       0.86676    0.60558    1.03865   1.00
H2       0.94646    0.74208    1.01874   1.00
H2       0.85316    0.59117    1.01365   1.00
C6       0.92124    0.76041    1.07374   1.00
C6       0.86719    0.57589    1.07337   1.00
H2       0.94588    0.70551    1.05384   1.00
H2       0.84714    0.62954    1.04623   1.00
C6       0.90173    0.79765    1.05694   1.00
C6       0.88939    0.53792    1.06264   1.00
C6       0.89592    0.74426    1.10753   1.00
C6       0.88559    0.59393    1.11052   1.00
C6       0.96137    0.77255    1.09092   1.00
C6       0.82443    0.56446    1.08309   1.00
H2       0.91858    0.80942    1.03258   1.00
H2       0.87750    0.52480    1.03614   1.00
H2       0.87232    0.79170    1.04649   1.00
H2       0.92029    0.54346    1.05777   1.00
H2       0.89947    0.82041    1.07910   1.00
H2       0.88721    0.51637    1.08598   1.00
H2       0.89356    0.76545    1.13119   1.00
H2       0.88322    0.57402    1.13527   1.00
H2       0.86642    0.73775    1.09756   1.00
H2       0.91649    0.60006    1.10610   1.00
H2       0.90859    0.71755    1.11935   1.00
H2       0.87102    0.62115    1.11824   1.00
H2       0.98029    0.78458    1.06828   1.00
H2       0.81018    0.55117    1.05788   1.00
H2       0.95805    0.79475    1.11354   1.00
H2       0.82322    0.54351    1.10706   1.00
H2       0.97628    0.74761    1.10396   1.00
H2       0.80742    0.58998    1.09168   1.00
C4       0.91386    0.91035    0.68475   1.00
C4       0.91485    0.90915    0.64309   1.00
C3       0.87866    0.91644    0.70603   1.00
C3       0.88031    0.90986    0.61996   1.00
C3       0.94915    0.90536    0.70646   1.00
C3       0.95153    0.90712    0.62330   1.00
C2       0.91151    0.91085    0.76905   1.00
C2       0.91689    0.90868    0.55878   1.00
C3       0.87741    0.91651    0.74689   1.00
C3       0.88122    0.90983    0.57909   1.00
C3       0.94659    0.90540    0.74804   1.00
C3       0.95121    0.90736    0.58164   1.00
H1       0.85267    0.92146    0.69263   1.00
H1       0.85316    0.91003    0.63194   1.00
C5       0.98573    0.90074    0.68665   1.00
C5       0.98722    0.90468    0.64502   1.00
H1       0.85107    0.92090    0.76049   1.00
H1       0.85528    0.91053    0.56409   1.00
H1       0.97101    0.90168    0.76448   1.00
H1       0.97671    0.90621    0.56652   1.00
C6       1.02214    0.89135    0.70985   1.00
C6       1.02593    0.90674    0.62381   1.00
H2       1.01520    0.86917    0.73155   1.00
H2       1.02455    0.92974    0.60190   1.00
H2       1.04381    0.87642    0.69214   1.00
H2       1.04911    0.91730    0.64272   1.00
C6       1.04137    0.92821    0.72894   1.00
C6       1.03865    0.86676    0.60558   1.00
H2       1.01874    0.94646    0.74208   1.00
H2       1.01365    0.85316    0.59117   1.00
C6       1.07374    0.92124    0.76041   1.00
C6       1.07337    0.86719    0.57589   1.00
H2       1.05384    0.94588    0.70551   1.00
H2       1.04623    0.84714    0.62954   1.00
C6       1.05694    0.90173    0.79765   1.00
C6       1.06264    0.88939    0.53792   1.00
C6       1.10753    0.89592    0.74426   1.00
C6       1.11052    0.88559    0.59393   1.00
C6       1.09092    0.96137    0.77255   1.00
C6       1.08309    0.82443    0.56446   1.00
H2       1.03258    0.91858    0.80942   1.00
H2       1.03614    0.87750    0.52480   1.00
H2       1.04649    0.87232    0.79170   1.00
H2       1.05777    0.92029    0.54346   1.00
H2       1.07910    0.89947    0.82041   1.00
H2       1.08598    0.88721    0.51637   1.00
H2       1.13119    0.89356    0.76545   1.00
H2       1.13527    0.88322    0.57402   1.00
H2       1.09756    0.86642    0.73775   1.00
H2       1.10610    0.91649    0.60006   1.00
H2       1.11935    0.90859    0.71755   1.00
H2       1.11824    0.87102    0.62115   1.00
H2       1.06828    0.98029    0.78458   1.00
H2       1.05788    0.81018    0.55117   1.00
H2       1.11354    0.95805    0.79475   1.00
H2       1.10706    0.82322    0.54351   1.00
H2       1.10396    0.97628    0.74761   1.00
H2       1.09168    0.80742    0.58998   1.00
C4       0.41386    0.41965    1.14525   1.00
C4       0.41485    0.42085    1.18691   1.00
C3       0.37866    0.41356    1.12397   1.00
C3       0.38031    0.42014    1.21004   1.00
C3       0.44915    0.42464    1.12354   1.00
C3       0.45153    0.42288    1.20670   1.00
C2       0.41151    0.41915    1.06095   1.00
C2       0.41689    0.42132    1.27122   1.00
C3       0.37741    0.41349    1.08311   1.00
C3       0.38122    0.42017    1.25091   1.00
C3       0.44659    0.42460    1.08196   1.00
C3       0.45121    0.42264    1.24836   1.00
H1       0.35267    0.40854    1.13737   1.00
H1       0.35316    0.41997    1.19806   1.00
C5       0.48573    0.42926    1.14335   1.00
C5       0.48722    0.42532    1.18498   1.00
H1       0.35107    0.40910    1.06951   1.00
H1       0.35528    0.41947    1.26591   1.00
H1       0.47101    0.42832    1.06552   1.00
H1       0.47671    0.42379    1.26348   1.00
C6       0.52214    0.43865    1.12015   1.00
C6       0.52593    0.42326    1.20619   1.00
H2       0.51520    0.46083    1.09845   1.00
H2       0.52455    0.40026    1.22810   1.00
H2       0.54381    0.45358    1.13786   1.00
H2       0.54911    0.41270    1.18728   1.00
C6       0.54137    0.40179    1.10106   1.00
C6       0.53865    0.46324    1.22442   1.00
H2       0.51874    0.38354    1.08792   1.00
H2       0.51365    0.47684    1.23883   1.00
C6       0.57374    0.40876    1.06959   1.00
C6       0.57337    0.46281    1.25411   1.00
H2       0.55384    0.38412    1.12449   1.00
H2       0.54623    0.48286    1.20046   1.00
C6       0.55694    0.42827    1.03235   1.00
C6       0.56264    0.44061    1.29208   1.00
C6       0.60753    0.43408    1.08574   1.00
C6       0.61052    0.44441    1.23607   1.00
C6       0.59092    0.36863    1.05745   1.00
C6       0.58309    0.50557    1.26554   1.00
H2       0.53258    0.41142    1.02058   1.00
H2       0.53614    0.45250    1.30520   1.00
H2       0.54649    0.45768    1.03830   1.00
H2       0.55777    0.40971    1.28654   1.00
H2       0.57910    0.43053    1.00959   1.00
H2       0.58598    0.44279    1.31363   1.00
H2       0.63119    0.43644    1.06455   1.00
H2       0.63527    0.44678    1.25598   1.00
H2       0.59756    0.46358    1.09225   1.00
H2       0.60610    0.41351    1.22994   1.00
H2       0.61935    0.42141    1.11245   1.00
H2       0.61824    0.45898    1.20885   1.00
H2       0.56828    0.34971    1.04542   1.00
H2       0.55788    0.51982    1.27883   1.00
H2       0.61354    0.37195    1.03525   1.00
H2       0.60706    0.50678    1.28649   1.00
H2       0.60396    0.35372    1.08239   1.00
H2       0.59168    0.52258    1.24002   1.00
C4       0.41965    0.64525    0.91386   1.00
C4       0.42085    0.68691    0.91485   1.00
C3       0.41356    0.62397    0.87866   1.00
C3       0.42014    0.71004    0.88031   1.00
C3       0.42464    0.62354    0.94915   1.00
C3       0.42288    0.70670    0.95153   1.00
C2       0.41915    0.56095    0.91151   1.00
C2       0.42132    0.77122    0.91689   1.00
C3       0.41349    0.58311    0.87741   1.00
C3       0.42017    0.75091    0.88122   1.00
C3       0.42460    0.58196    0.94659   1.00
C3       0.42264    0.74836    0.95121   1.00
H1       0.40854    0.63737    0.85267   1.00
H1       0.41997    0.69806    0.85316   1.00
C5       0.42926    0.64335    0.98573   1.00
C5       0.42532    0.68498    0.98722   1.00
H1       0.40910    0.56951    0.85107   1.00
H1       0.41947    0.76591    0.85528   1.00
H1       0.42832    0.56552    0.97101   1.00
H1       0.42379    0.76348    0.97671   1.00
C6       0.43865    0.62015    1.02214   1.00
C6       0.42326    0.70619    1.02593   1.00
H2       0.46083    0.59845    1.01520   1.00
H2       0.40026    0.72810    1.02455   1.00
H2       0.45358    0.63786    1.04381   1.00
H2       0.41270    0.68728    1.04911   1.00
C6       0.40179    0.60106    1.04137   1.00
C6       0.46324    0.72442    1.03865   1.00
H2       0.38354    0.58792    1.01874   1.00
H2       0.47684    0.73883    1.01365   1.00
C6       0.40876    0.56959    1.07374   1.00
C6       0.46281    0.75411    1.07337   1.00
H2       0.38412    0.62449    1.05384   1.00
H2       0.48286    0.70046    1.04623   1.00
C6       0.42827    0.53235    1.05694   1.00
C6       0.44061    0.79208    1.06264   1.00
C6       0.43408    0.58574    1.10753   1.00
C6       0.44441    0.73607    1.11052   1.00
C6       0.36863    0.55745    1.09092   1.00
C6       0.50557    0.76554    1.08309   1.00
H2       0.41142    0.52058    1.03258   1.00
H2       0.45250    0.80520    1.03614   1.00
H2       0.45768    0.53830    1.04649   1.00
H2       0.40971    0.78654    1.05777   1.00
H2       0.43053    0.50959    1.07910   1.00
H2       0.44279    0.81363    1.08598   1.00
H2       0.43644    0.56455    1.13119   1.00
H2       0.44678    0.75598    1.13527   1.00
H2       0.46358    0.59225    1.09756   1.00
H2       0.41351    0.72994    1.10610   1.00
H2       0.42141    0.61245    1.11935   1.00
H2       0.45898    0.70885    1.11824   1.00
H2       0.34971    0.54542    1.06828   1.00
H2       0.51982    0.77883    1.05788   1.00
H2       0.37195    0.53525    1.11354   1.00
H2       0.50678    0.78649    1.10706   1.00
H2       0.35372    0.58239    1.10396   1.00
H2       0.52258    0.74002    1.09168   1.00
C4       0.18475    0.41386    0.91035   1.00
C4       0.14309    0.41485    0.90915   1.00
C3       0.20603    0.37866    0.91644   1.00
C3       0.11996    0.38031    0.90986   1.00
C3       0.20646    0.44915    0.90536   1.00
C3       0.12330    0.45153    0.90712   1.00
C2       0.26905    0.41151    0.91085   1.00
C2       0.05878    0.41689    0.90868   1.00
C3       0.24689    0.37741    0.91651   1.00
C3       0.07909    0.38122    0.90983   1.00
C3       0.24804    0.44659    0.90540   1.00
C3       0.08164    0.45121    0.90736   1.00
H1       0.19263    0.35267    0.92146   1.00
H1       0.13194    0.35316    0.91003   1.00
C5       0.18665    0.48573    0.90074   1.00
C5       0.14502    0.48722    0.90468   1.00
H1       0.26049    0.35107    0.92090   1.00
H1       0.06409    0.35528    0.91053   1.00
H1       0.26448    0.47101    0.90168   1.00
H1       0.06652    0.47671    0.90621   1.00
C6       0.20985    0.52214    0.89135   1.00
C6       0.12381    0.52593    0.90674   1.00
H2       0.23155    0.51520    0.86917   1.00
H2       0.10190    0.52455    0.92974   1.00
H2       0.19214    0.54381    0.87642   1.00
H2       0.14272    0.54911    0.91730   1.00
C6       0.22894    0.54137    0.92821   1.00
C6       0.10558    0.53865    0.86676   1.00
H2       0.24208    0.51874    0.94646   1.00
H2       0.09117    0.51365    0.85316   1.00
C6       0.26041    0.57374    0.92124   1.00
C6       0.07589    0.57337    0.86719   1.00
H2       0.20551    0.55384    0.94588   1.00
H2       0.12954    0.54623    0.84714   1.00
C6       0.29765    0.55694    0.90173   1.00
C6       0.03792    0.56264    0.88939   1.00
C6       0.24426    0.60753    0.89592   1.00
C6       0.09393    0.61052    0.88559   1.00
C6       0.27255    0.59092    0.96137   1.00
C6       0.06446    0.58309    0.82443   1.00
H2       0.30942    0.53258    0.91858   1.00
H2       0.02480    0.53614    0.87750   1.00
H2       0.29170    0.54649    0.87232   1.00
H2       0.04346    0.55777    0.92029   1.00
H2       0.32041    0.57910    0.89947   1.00
H2       0.01637    0.58598    0.88721   1.00
H2       0.26545    0.63119    0.89356   1.00
H2       0.07402    0.63527    0.88322   1.00
H2       0.23775    0.59756    0.86642   1.00
H2       0.10006    0.60610    0.91649   1.00
H2       0.21755    0.61935    0.90859   1.00
H2       0.12115    0.61824    0.87102   1.00
H2       0.28458    0.56828    0.98029   1.00
H2       0.05117    0.55788    0.81018   1.00
H2       0.29475    0.61354    0.95805   1.00
H2       0.04351    0.60706    0.82322   1.00
H2       0.24761    0.60396    0.97628   1.00
H2       0.08998    0.59168    0.80742   1.00
C4       0.64525    0.41386    0.91965   1.00
C4       0.68691    0.41485    0.92085   1.00
C3       0.62397    0.37866    0.91356   1.00
C3       0.71004    0.38031    0.92014   1.00
C3       0.62354    0.44915    0.92464   1.00
C3       0.70670    0.45153    0.92288   1.00
C2       0.56095    0.41151    0.91915   1.00
C2       0.77122    0.41689    0.92132   1.00
C3       0.58311    0.37741    0.91349   1.00
C3       0.75091    0.38122    0.92017   1.00
C3       0.58196    0.44659    0.92460   1.00
C3       0.74836    0.45121    0.92264   1.00
H1       0.63737    0.35267    0.90854   1.00
H1       0.69806    0.35316    0.91997   1.00
C5       0.64335    0.48573    0.92926   1.00
C5       0.68498    0.48722    0.92532   1.00
H1       0.56951    0.35107    0.90910   1.00
H1       0.76591    0.35528    0.91947   1.00
H1       0.56552    0.47101    0.92832   1.00
H1       0.76348    0.47671    0.92379   1.00
C6       0.62015    0.52214    0.93865   1.00
C6       0.70619    0.52593    0.92326   1.00
H2       0.59845    0.51520    0.96083   1.00
H2       0.72810    0.52455    0.90026   1.00
H2       0.63786    0.54381    0.95358   1.00
H2       0.68728    0.54911    0.91270   1.00
C6       0.60106    0.54137    0.90179   1.00
C6       0.72442    0.53865    0.96324   1.00
H2       0.58792    0.51874    0.88354   1.00
H2       0.73883    0.51365    0.97684   1.00
C6       0.56959    0.57374    0.90876   1.00
C6       0.75411    0.57337    0.96281   1.00
H2       0.62449    0.55384    0.88412   1.00
H2       0.70046    0.54623    0.98286   1.00
C6       0.53235    0.55694    0.92827   1.00
C6       0.79208    0.56264    0.94061   1.00
C6       0.58574    0.60753    0.93408   1.00
C6       0.73607    0.61052    0.94441   1.00
C6       0.55745    0.59092    0.86863   1.00
C6       0.76554    0.58309    1.00557   1.00
H2       0.52058    0.53258    0.91142   1.00
H2       0.80520    0.53614    0.95250   1.00
H2       0.53830    0.54649    0.95768   1.00
H2       0.78654    0.55777    0.90971   1.00
H2       0.50959    0.57910    0.93053   1.00
H2       0.81363    0.58598    0.94279   1.00
H2       0.56455    0.63119    0.93644   1.00
H2       0.75598    0.63527    0.94678   1.00
H2       0.59225    0.59756    0.96358   1.00
H2       0.72994    0.60610    0.91351   1.00
H2       0.61245    0.61935    0.92141   1.00
H2       0.70885    0.61824    0.95898   1.00
H2       0.54542    0.56828    0.84971   1.00
H2       0.77883    0.55788    1.01982   1.00
H2       0.53525    0.61354    0.87195   1.00
H2       0.78649    0.60706    1.00678   1.00
H2       0.58239    0.60396    0.85372   1.00
H2       0.74002    0.59168    1.02258   1.00
C4       0.41035    0.18475    0.91386   1.00
C4       0.40915    0.14309    0.91485   1.00
C3       0.41644    0.20603    0.87866   1.00
C3       0.40986    0.11996    0.88031   1.00
C3       0.40536    0.20646    0.94915   1.00
C3       0.40712    0.12330    0.95153   1.00
C2       0.41085    0.26905    0.91151   1.00
C2       0.40868    0.05878    0.91689   1.00
C3       0.41651    0.24689    0.87741   1.00
C3       0.40983    0.07909    0.88122   1.00
C3       0.40540    0.24804    0.94659   1.00
C3       0.40736    0.08164    0.95121   1.00
H1       0.42146    0.19263    0.85267   1.00
H1       0.41003    0.13194    0.85316   1.00
C5       0.40074    0.18665    0.98573   1.00
C5       0.40468    0.14502    0.98722   1.00
H1       0.42090    0.26049    0.85107   1.00
H1       0.41053    0.06409    0.85528   1.00
H1       0.40168    0.26448    0.97101   1.00
H1       0.40621    0.06652    0.97671   1.00
C6       0.39135    0.20985    1.02214   1.00
C6       0.40674    0.12381    1.02593   1.00
H2       0.36917    0.23155    1.01520   1.00
H2       0.42974    0.10190    1.02455   1.00
H2       0.37642    0.19214    1.04381   1.00
H2       0.41730    0.14272    1.04911   1.00
C6       0.42821    0.22894    1.04137   1.00
C6       0.36676    0.10558    1.03865   1.00
H2       0.44646    0.24208    1.01874   1.00
H2       0.35316    0.09117    1.01365   1.00
C6       0.42124    0.26041    1.07374   1.00
C6       0.36719    0.07589    1.07337   1.00
H2       0.44588    0.20551    1.05384   1.00
H2       0.34714    0.12954    1.04623   1.00
C6       0.40173    0.29765    1.05694   1.00
C6       0.38939    0.03792    1.06264   1.00
C6       0.39592    0.24426    1.10753   1.00
C6       0.38559    0.09393    1.11052   1.00
C6       0.46137    0.27255    1.09092   1.00
C6       0.32443    0.06446    1.08309   1.00
H2       0.41858    0.30942    1.03258   1.00
H2       0.37750    0.02480    1.03614   1.00
H2       0.37232    0.29170    1.04649   1.00
H2       0.42029    0.04346    1.05777   1.00
H2       0.39947    0.32041    1.07910   1.00
H2       0.38721    0.01637    1.08598   1.00
H2       0.39356    0.26545    1.13119   1.00
H2       0.38322    0.07402    1.13527   1.00
H2       0.36642    0.23775    1.09756   1.00
H2       0.41649    0.10006    1.10610   1.00
H2       0.40859    0.21755    1.11935   1.00
H2       0.37102    0.12115    1.11824   1.00
H2       0.48029    0.28458    1.06828   1.00
H2       0.31018    0.05117    1.05788   1.00
H2       0.45805    0.29475    1.11354   1.00
H2       0.32322    0.04351    1.10706   1.00
H2       0.47628    0.24761    1.10396   1.00
H2       0.30742    0.08998    1.09168   1.00
C4       0.41386    0.41035    0.68475   1.00
C4       0.41485    0.40915    0.64309   1.00
C3       0.37866    0.41644    0.70603   1.00
C3       0.38031    0.40986    0.61996   1.00
C3       0.44915    0.40536    0.70646   1.00
C3       0.45153    0.40712    0.62330   1.00
C2       0.41151    0.41085    0.76905   1.00
C2       0.41689    0.40868    0.55878   1.00
C3       0.37741    0.41651    0.74689   1.00
C3       0.38122    0.40983    0.57909   1.00
C3       0.44659    0.40540    0.74804   1.00
C3       0.45121    0.40736    0.58164   1.00
H1       0.35267    0.42146    0.69263   1.00
H1       0.35316    0.41003    0.63194   1.00
C5       0.48573    0.40074    0.68665   1.00
C5       0.48722    0.40468    0.64502   1.00
H1       0.35107    0.42090    0.76049   1.00
H1       0.35528    0.41053    0.56409   1.00
H1       0.47101    0.40168    0.76448   1.00
H1       0.47671    0.40621    0.56652   1.00
C6       0.52214    0.39135    0.70985   1.00
C6       0.52593    0.40674    0.62381   1.00
H2       0.51520    0.36917    0.73155   1.00
H2       0.52455    0.42974    0.60190   1.00
H2       0.54381    0.37642    0.69214   1.00
H2       0.54911    0.41730    0.64272   1.00
C6       0.54137    0.42821    0.72894   1.00
C6       0.53865    0.36676    0.60558   1.00
H2       0.51874    0.44646    0.74208   1.00
H2       0.51365    0.35316    0.59117   1.00
C6       0.57374    0.42124    0.76041   1.00
C6       0.57337    0.36719    0.57589   1.00
H2       0.55384    0.44588    0.70551   1.00
H2       0.54623    0.34714    0.62954   1.00
C6       0.55694    0.40173    0.79765   1.00
C6       0.56264    0.38939    0.53792   1.00
C6       0.60753    0.39592    0.74426   1.00
C6       0.61052    0.38559    0.59393   1.00
C6       0.59092    0.46137    0.77255   1.00
C6       0.58309    0.32443    0.56446   1.00
H2       0.53258    0.41858    0.80942   1.00
H2       0.53614    0.37750    0.52480   1.00
H2       0.54649    0.37232    0.79170   1.00
H2       0.55777    0.42029    0.54346   1.00
H2       0.57910    0.39947    0.82041   1.00
H2       0.58598    0.38721    0.51637   1.00
H2       0.63119    0.39356    0.76545   1.00
H2       0.63527    0.38322    0.57402   1.00
H2       0.59756    0.36642    0.73775   1.00
H2       0.60610    0.41649    0.60006   1.00
H2       0.61935    0.40859    0.71755   1.00
H2       0.61824    0.37102    0.62115   1.00
H2       0.56828    0.48029    0.78458   1.00
H2       0.55788    0.31018    0.55117   1.00
H2       0.61354    0.45805    0.79475   1.00
H2       0.60706    0.32322    0.54351   1.00
H2       0.60396    0.47628    0.74761   1.00
H2       0.59168    0.30742    0.58998   1.00
C4       0.41386    0.91965    0.64525   1.00
C4       0.41485    0.92085    0.68691   1.00
C3       0.37866    0.91356    0.62397   1.00
C3       0.38031    0.92014    0.71004   1.00
C3       0.44915    0.92464    0.62354   1.00
C3       0.45153    0.92288    0.70670   1.00
C2       0.41151    0.91915    0.56095   1.00
C2       0.41689    0.92132    0.77122   1.00
C3       0.37741    0.91349    0.58311   1.00
C3       0.38122    0.92017    0.75091   1.00
C3       0.44659    0.92460    0.58196   1.00
C3       0.45121    0.92264    0.74836   1.00
H1       0.35267    0.90854    0.63737   1.00
H1       0.35316    0.91997    0.69806   1.00
C5       0.48573    0.92926    0.64335   1.00
C5       0.48722    0.92532    0.68498   1.00
H1       0.35107    0.90910    0.56951   1.00
H1       0.35528    0.91947    0.76591   1.00
H1       0.47101    0.92832    0.56552   1.00
H1       0.47671    0.92379    0.76348   1.00
C6       0.52214    0.93865    0.62015   1.00
C6       0.52593    0.92326    0.70619   1.00
H2       0.51520    0.96083    0.59845   1.00
H2       0.52455    0.90026    0.72810   1.00
H2       0.54381    0.95358    0.63786   1.00
H2       0.54911    0.91270    0.68728   1.00
C6       0.54137    0.90179    0.60106   1.00
C6       0.53865    0.96324    0.72442   1.00
H2       0.51874    0.88354    0.58792   1.00
H2       0.51365    0.97684    0.73883   1.00
C6       0.57374    0.90876    0.56959   1.00
C6       0.57337    0.96281    0.75411   1.00
H2       0.55384    0.88412    0.62449   1.00
H2       0.54623    0.98286    0.70046   1.00
C6       0.55694    0.92827    0.53235   1.00
C6       0.56264    0.94061    0.79208   1.00
C6       0.60753    0.93408    0.58574   1.00
C6       0.61052    0.94441    0.73607   1.00
C6       0.59092    0.86863    0.55745   1.00
C6       0.58309    1.00557    0.76554   1.00
H2       0.53258    0.91142    0.52058   1.00
H2       0.53614    0.95250    0.80520   1.00
H2       0.54649    0.95768    0.53830   1.00
H2       0.55777    0.90971    0.78654   1.00
H2       0.57910    0.93053    0.50959   1.00
H2       0.58598    0.94279    0.81363   1.00
H2       0.63119    0.93644    0.56455   1.00
H2       0.63527    0.94678    0.75598   1.00
H2       0.59756    0.96358    0.59225   1.00
H2       0.60610    0.91351    0.72994   1.00
H2       0.61935    0.92141    0.61245   1.00
H2       0.61824    0.95898    0.70885   1.00
H2       0.56828    0.84971    0.54542   1.00
H2       0.55788    1.01982    0.77883   1.00
H2       0.61354    0.87195    0.53525   1.00
H2       0.60706    1.00678    0.78649   1.00
H2       0.60396    0.85372    0.58239   1.00
H2       0.59168    1.02258    0.74002   1.00
C4       0.41965    1.14525    0.41386   1.00
C4       0.42085    1.18691    0.41485   1.00
C3       0.41356    1.12397    0.37866   1.00
C3       0.42014    1.21004    0.38031   1.00
C3       0.42464    1.12354    0.44915   1.00
C3       0.42288    1.20670    0.45153   1.00
C2       0.41915    1.06095    0.41151   1.00
C2       0.42132    1.27122    0.41689   1.00
C3       0.41349    1.08311    0.37741   1.00
C3       0.42017    1.25091    0.38122   1.00
C3       0.42460    1.08196    0.44659   1.00
C3       0.42264    1.24836    0.45121   1.00
H1       0.40854    1.13737    0.35267   1.00
H1       0.41997    1.19806    0.35316   1.00
C5       0.42926    1.14335    0.48573   1.00
C5       0.42532    1.18498    0.48722   1.00
H1       0.40910    1.06951    0.35107   1.00
H1       0.41947    1.26591    0.35528   1.00
H1       0.42832    1.06552    0.47101   1.00
H1       0.42379    1.26348    0.47671   1.00
C6       0.43865    1.12015    0.52214   1.00
C6       0.42326    1.20619    0.52593   1.00
H2       0.46083    1.09845    0.51520   1.00
H2       0.40026    1.22810    0.52455   1.00
H2       0.45358    1.13786    0.54381   1.00
H2       0.41270    1.18728    0.54911   1.00
C6       0.40179    1.10106    0.54137   1.00
C6       0.46324    1.22442    0.53865   1.00
H2       0.38354    1.08792    0.51874   1.00
H2       0.47684    1.23883    0.51365   1.00
C6       0.40876    1.06959    0.57374   1.00
C6       0.46281    1.25411    0.57337   1.00
H2       0.38412    1.12449    0.55384   1.00
H2       0.48286    1.20046    0.54623   1.00
C6       0.42827    1.03235    0.55694   1.00
C6       0.44061    1.29208    0.56264   1.00
C6       0.43408    1.08574    0.60753   1.00
C6       0.44441    1.23607    0.61052   1.00
C6       0.36863    1.05745    0.59092   1.00
C6       0.50557    1.26554    0.58309   1.00
H2       0.41142    1.02058    0.53258   1.00
H2       0.45250    1.30520    0.53614   1.00
H2       0.45768    1.03830    0.54649   1.00
H2       0.40971    1.28654    0.55777   1.00
H2       0.43053    1.00959    0.57910   1.00
H2       0.44279    1.31363    0.58598   1.00
H2       0.43644    1.06455    0.63119   1.00
H2       0.44678    1.25598    0.63527   1.00
H2       0.46358    1.09225    0.59756   1.00
H2       0.41351    1.22994    0.60610   1.00
H2       0.42141    1.11245    0.61935   1.00
H2       0.45898    1.20885    0.61824   1.00
H2       0.34971    1.04542    0.56828   1.00
H2       0.51982    1.27883    0.55788   1.00
H2       0.37195    1.03525    0.61354   1.00
H2       0.50678    1.28649    0.60706   1.00
H2       0.35372    1.08239    0.60396   1.00
H2       0.52258    1.24002    0.59168   1.00
C4       0.18475    0.91386    0.41035   1.00
C4       0.14309    0.91485    0.40915   1.00
C3       0.20603    0.87866    0.41644   1.00
C3       0.11996    0.88031    0.40986   1.00
C3       0.20646    0.94915    0.40536   1.00
C3       0.12330    0.95153    0.40712   1.00
C2       0.26905    0.91151    0.41085   1.00
C2       0.05878    0.91689    0.40868   1.00
C3       0.24689    0.87741    0.41651   1.00
C3       0.07909    0.88122    0.40983   1.00
C3       0.24804    0.94659    0.40540   1.00
C3       0.08164    0.95121    0.40736   1.00
H1       0.19263    0.85267    0.42146   1.00
H1       0.13194    0.85316    0.41003   1.00
C5       0.18665    0.98573    0.40074   1.00
C5       0.14502    0.98722    0.40468   1.00
H1       0.26049    0.85107    0.42090   1.00
H1       0.06409    0.85528    0.41053   1.00
H1       0.26448    0.97101    0.40168   1.00
H1       0.06652    0.97671    0.40621   1.00
C6       0.20985    1.02214    0.39135   1.00
C6       0.12381    1.02593    0.40674   1.00
H2       0.23155    1.01520    0.36917   1.00
H2       0.10190    1.02455    0.42974   1.00
H2       0.19214    1.04381    0.37642   1.00
H2       0.14272    1.04911    0.41730   1.00
C6       0.22894    1.04137    0.42821   1.00
C6       0.10558    1.03865    0.36676   1.00
H2       0.24208    1.01874    0.44646   1.00
H2       0.09117    1.01365    0.35316   1.00
C6       0.26041    1.07374    0.42124   1.00
C6       0.07589    1.07337    0.36719   1.00
H2       0.20551    1.05384    0.44588   1.00
H2       0.12954    1.04623    0.34714   1.00
C6       0.29765    1.05694    0.40173   1.00
C6       0.03792    1.06264    0.38939   1.00
C6       0.24426    1.10753    0.39592   1.00
C6       0.09393    1.11052    0.38559   1.00
C6       0.27255    1.09092    0.46137   1.00
C6       0.06446    1.08309    0.32443   1.00
H2       0.30942    1.03258    0.41858   1.00
H2       0.02480    1.03614    0.37750   1.00
H2       0.29170    1.04649    0.37232   1.00
H2       0.04346    1.05777    0.42029   1.00
H2       0.32041    1.07910    0.39947   1.00
H2       0.01637    1.08598    0.38721   1.00
H2       0.26545    1.13119    0.39356   1.00
H2       0.07402    1.13527    0.38322   1.00
H2       0.23775    1.09756    0.36642   1.00
H2       0.10006    1.10610    0.41649   1.00
H2       0.21755    1.11935    0.40859   1.00
H2       0.12115    1.11824    0.37102   1.00
H2       0.28458    1.06828    0.48029   1.00
H2       0.05117    1.05788    0.31018   1.00
H2       0.29475    1.11354    0.45805   1.00
H2       0.04351    1.10706    0.32322   1.00
H2       0.24761    1.10396    0.47628   1.00
H2       0.08998    1.09168    0.30742   1.00
C4       0.64525    0.91386    0.41965   1.00
C4       0.68691    0.91485    0.42085   1.00
C3       0.62397    0.87866    0.41356   1.00
C3       0.71004    0.88031    0.42014   1.00
C3       0.62354    0.94915    0.42464   1.00
C3       0.70670    0.95153    0.42288   1.00
C2       0.56095    0.91151    0.41915   1.00
C2       0.77122    0.91689    0.42132   1.00
C3       0.58311    0.87741    0.41349   1.00
C3       0.75091    0.88122    0.42017   1.00
C3       0.58196    0.94659    0.42460   1.00
C3       0.74836    0.95121    0.42264   1.00
H1       0.63737    0.85267    0.40854   1.00
H1       0.69806    0.85316    0.41997   1.00
C5       0.64335    0.98573    0.42926   1.00
C5       0.68498    0.98722    0.42532   1.00
H1       0.56951    0.85107    0.40910   1.00
H1       0.76591    0.85528    0.41947   1.00
H1       0.56552    0.97101    0.42832   1.00
H1       0.76348    0.97671    0.42379   1.00
C6       0.62015    1.02214    0.43865   1.00
C6       0.70619    1.02593    0.42326   1.00
H2       0.59845    1.01520    0.46083   1.00
H2       0.72810    1.02455    0.40026   1.00
H2       0.63786    1.04381    0.45358   1.00
H2       0.68728    1.04911    0.41270   1.00
C6       0.60106    1.04137    0.40179   1.00
C6       0.72442    1.03865    0.46324   1.00
H2       0.58792    1.01874    0.38354   1.00
H2       0.73883    1.01365    0.47684   1.00
C6       0.56959    1.07374    0.40876   1.00
C6       0.75411    1.07337    0.46281   1.00
H2       0.62449    1.05384    0.38412   1.00
H2       0.70046    1.04623    0.48286   1.00
C6       0.53235    1.05694    0.42827   1.00
C6       0.79208    1.06264    0.44061   1.00
C6       0.58574    1.10753    0.43408   1.00
C6       0.73607    1.11052    0.44441   1.00
C6       0.55745    1.09092    0.36863   1.00
C6       0.76554    1.08309    0.50557   1.00
H2       0.52058    1.03258    0.41142   1.00
H2       0.80520    1.03614    0.45250   1.00
H2       0.53830    1.04649    0.45768   1.00
H2       0.78654    1.05777    0.40971   1.00
H2       0.50959    1.07910    0.43053   1.00
H2       0.81363    1.08598    0.44279   1.00
H2       0.56455    1.13119    0.43644   1.00
H2       0.75598    1.13527    0.44678   1.00
H2       0.59225    1.09756    0.46358   1.00
H2       0.72994    1.10610    0.41351   1.00
H2       0.61245    1.11935    0.42141   1.00
H2       0.70885    1.11824    0.45898   1.00
H2       0.54542    1.06828    0.34971   1.00
H2       0.77883    1.05788    0.51982   1.00
H2       0.53525    1.11354    0.37195   1.00
H2       0.78649    1.10706    0.50678   1.00
H2       0.58239    1.10396    0.35372   1.00
H2       0.74002    1.09168    0.52258   1.00
C4       0.41035    0.68475    0.41386   1.00
C4       0.40915    0.64309    0.41485   1.00
C3       0.41644    0.70603    0.37866   1.00
C3       0.40986    0.61996    0.38031   1.00
C3       0.40536    0.70646    0.44915   1.00
C3       0.40712    0.62330    0.45153   1.00
C2       0.41085    0.76905    0.41151   1.00
C2       0.40868    0.55878    0.41689   1.00
C3       0.41651    0.74689    0.37741   1.00
C3       0.40983    0.57909    0.38122   1.00
C3       0.40540    0.74804    0.44659   1.00
C3       0.40736    0.58164    0.45121   1.00
H1       0.42146    0.69263    0.35267   1.00
H1       0.41003    0.63194    0.35316   1.00
C5       0.40074    0.68665    0.48573   1.00
C5       0.40468    0.64502    0.48722   1.00
H1       0.42090    0.76049    0.35107   1.00
H1       0.41053    0.56409    0.35528   1.00
H1       0.40168    0.76448    0.47101   1.00
H1       0.40621    0.56652    0.47671   1.00
C6       0.39135    0.70985    0.52214   1.00
C6       0.40674    0.62381    0.52593   1.00
H2       0.36917    0.73155    0.51520   1.00
H2       0.42974    0.60190    0.52455   1.00
H2       0.37642    0.69214    0.54381   1.00
H2       0.41730    0.64272    0.54911   1.00
C6       0.42821    0.72894    0.54137   1.00
C6       0.36676    0.60558    0.53865   1.00
H2       0.44646    0.74208    0.51874   1.00
H2       0.35316    0.59117    0.51365   1.00
C6       0.42124    0.76041    0.57374   1.00
C6       0.36719    0.57589    0.57337   1.00
H2       0.44588    0.70551    0.55384   1.00
H2       0.34714    0.62954    0.54623   1.00
C6       0.40173    0.79765    0.55694   1.00
C6       0.38939    0.53792    0.56264   1.00
C6       0.39592    0.74426    0.60753   1.00
C6       0.38559    0.59393    0.61052   1.00
C6       0.46137    0.77255    0.59092   1.00
C6       0.32443    0.56446    0.58309   1.00
H2       0.41858    0.80942    0.53258   1.00
H2       0.37750    0.52480    0.53614   1.00
H2       0.37232    0.79170    0.54649   1.00
H2       0.42029    0.54346    0.55777   1.00
H2       0.39947    0.82041    0.57910   1.00
H2       0.38721    0.51637    0.58598   1.00
H2       0.39356    0.76545    0.63119   1.00
H2       0.38322    0.57402    0.63527   1.00
H2       0.36642    0.73775    0.59756   1.00
H2       0.41649    0.60006    0.60610   1.00
H2       0.40859    0.71755    0.61935   1.00
H2       0.37102    0.62115    0.61824   1.00
H2       0.48029    0.78458    0.56828   1.00
H2       0.31018    0.55117    0.55788   1.00
H2       0.45805    0.79475    0.61354   1.00
H2       0.32322    0.54351    0.60706   1.00
H2       0.47628    0.74761    0.60396   1.00
H2       0.30742    0.58998    0.59168   1.00
C4       0.41386    0.91035    0.18475   1.00
C4       0.41485    0.90915    0.14309   1.00
C3       0.37866    0.91644    0.20603   1.00
C3       0.38031    0.90986    0.11996   1.00
C3       0.44915    0.90536    0.20646   1.00
C3       0.45153    0.90712    0.12330   1.00
C2       0.41151    0.91085    0.26905   1.00
C2       0.41689    0.90868    0.05878   1.00
C3       0.37741    0.91651    0.24689   1.00
C3       0.38122    0.90983    0.07909   1.00
C3       0.44659    0.90540    0.24804   1.00
C3       0.45121    0.90736    0.08164   1.00
H1       0.35267    0.92146    0.19263   1.00
H1       0.35316    0.91003    0.13194   1.00
C5       0.48573    0.90074    0.18665   1.00
C5       0.48722    0.90468    0.14502   1.00
H1       0.35107    0.92090    0.26049   1.00
H1       0.35528    0.91053    0.06409   1.00
H1       0.47101    0.90168    0.26448   1.00
H1       0.47671    0.90621    0.06652   1.00
C6       0.52214    0.89135    0.20985   1.00
C6       0.52593    0.90674    0.12381   1.00
H2       0.51520    0.86917    0.23155   1.00
H2       0.52455    0.92974    0.10190   1.00
H2       0.54381    0.87642    0.19214   1.00
H2       0.54911    0.91730    0.14272   1.00
C6       0.54137    0.92821    0.22894   1.00
C6       0.53865    0.86676    0.10558   1.00
H2       0.51874    0.94646    0.24208   1.00
H2       0.51365    0.85316    0.09117   1.00
C6       0.57374    0.92124    0.26041   1.00
C6       0.57337    0.86719    0.07589   1.00
H2       0.55384    0.94588    0.20551   1.00
H2       0.54623    0.84714    0.12954   1.00
C6       0.55694    0.90173    0.29765   1.00
C6       0.56264    0.88939    0.03792   1.00
C6       0.60753    0.89592    0.24426   1.00
C6       0.61052    0.88559    0.09393   1.00
C6       0.59092    0.96137    0.27255   1.00
C6       0.58309    0.82443    0.06446   1.00
H2       0.53258    0.91858    0.30942   1.00
H2       0.53614    0.87750    0.02480   1.00
H2       0.54649    0.87232    0.29170   1.00
H2       0.55777    0.92029    0.04346   1.00
H2       0.57910    0.89947    0.32041   1.00
H2       0.58598    0.88721    0.01637   1.00
H2       0.63119    0.89356    0.26545   1.00
H2       0.63527    0.88322    0.07402   1.00
H2       0.59756    0.86642    0.23775   1.00
H2       0.60610    0.91649    0.10006   1.00
H2       0.61935    0.90859    0.21755   1.00
H2       0.61824    0.87102    0.12115   1.00
H2       0.56828    0.98029    0.28458   1.00
H2       0.55788    0.81018    0.05117   1.00
H2       0.61354    0.95805    0.29475   1.00
H2       0.60706    0.82322    0.04351   1.00
H2       0.60396    0.97628    0.24761   1.00
H2       0.59168    0.80742    0.08998   1.00
C4       0.91386    0.41965    0.64525   1.00
C4       0.91485    0.42085    0.68691   1.00
C3       0.87866    0.41356    0.62397   1.00
C3       0.88031    0.42014    0.71004   1.00
C3       0.94915    0.42464    0.62354   1.00
C3       0.95153    0.42288    0.70670   1.00
C2       0.91151    0.41915    0.56095   1.00
C2       0.91689    0.42132    0.77122   1.00
C3       0.87741    0.41349    0.58311   1.00
C3       0.88122    0.42017    0.75091   1.00
C3       0.94659    0.42460    0.58196   1.00
C3       0.95121    0.42264    0.74836   1.00
H1       0.85267    0.40854    0.63737   1.00
H1       0.85316    0.41997    0.69806   1.00
C5       0.98573    0.42926    0.64335   1.00
C5       0.98722    0.42532    0.68498   1.00
H1       0.85107    0.40910    0.56951   1.00
H1       0.85528    0.41947    0.76591   1.00
H1       0.97101    0.42832    0.56552   1.00
H1       0.97671    0.42379    0.76348   1.00
C6       1.02214    0.43865    0.62015   1.00
C6       1.02593    0.42326    0.70619   1.00
H2       1.01520    0.46083    0.59845   1.00
H2       1.02455    0.40026    0.72810   1.00
H2       1.04381    0.45358    0.63786   1.00
H2       1.04911    0.41270    0.68728   1.00
C6       1.04137    0.40179    0.60106   1.00
C6       1.03865    0.46324    0.72442   1.00
H2       1.01874    0.38354    0.58792   1.00
H2       1.01365    0.47684    0.73883   1.00
C6       1.07374    0.40876    0.56959   1.00
C6       1.07337    0.46281    0.75411   1.00
H2       1.05384    0.38412    0.62449   1.00
H2       1.04623    0.48286    0.70046   1.00
C6       1.05694    0.42827    0.53235   1.00
C6       1.06264    0.44061    0.79208   1.00
C6       1.10753    0.43408    0.58574   1.00
C6       1.11052    0.44441    0.73607   1.00
C6       1.09092    0.36863    0.55745   1.00
C6       1.08309    0.50557    0.76554   1.00
H2       1.03258    0.41142    0.52058   1.00
H2       1.03614    0.45250    0.80520   1.00
H2       1.04649    0.45768    0.53830   1.00
H2       1.05777    0.40971    0.78654   1.00
H2       1.07910    0.43053    0.50959   1.00
H2       1.08598    0.44279    0.81363   1.00
H2       1.13119    0.43644    0.56455   1.00
H2       1.13527    0.44678    0.75598   1.00
H2       1.09756    0.46358    0.59225   1.00
H2       1.10610    0.41351    0.72994   1.00
H2       1.11935    0.42141    0.61245   1.00
H2       1.11824    0.45898    0.70885   1.00
H2       1.06828    0.34971    0.54542   1.00
H2       1.05788    0.51982    0.77883   1.00
H2       1.11354    0.37195    0.53525   1.00
H2       1.10706    0.50678    0.78649   1.00
H2       1.10396    0.35372    0.58239   1.00
H2       1.09168    0.52258    0.74002   1.00
C4       0.91965    0.64525    0.41386   1.00
C4       0.92085    0.68691    0.41485   1.00
C3       0.91356    0.62397    0.37866   1.00
C3       0.92014    0.71004    0.38031   1.00
C3       0.92464    0.62354    0.44915   1.00
C3       0.92288    0.70670    0.45153   1.00
C2       0.91915    0.56095    0.41151   1.00
C2       0.92132    0.77122    0.41689   1.00
C3       0.91349    0.58311    0.37741   1.00
C3       0.92017    0.75091    0.38122   1.00
C3       0.92460    0.58196    0.44659   1.00
C3       0.92264    0.74836    0.45121   1.00
H1       0.90854    0.63737    0.35267   1.00
H1       0.91997    0.69806    0.35316   1.00
C5       0.92926    0.64335    0.48573   1.00
C5       0.92532    0.68498    0.48722   1.00
H1       0.90910    0.56951    0.35107   1.00
H1       0.91947    0.76591    0.35528   1.00
H1       0.92832    0.56552    0.47101   1.00
H1       0.92379    0.76348    0.47671   1.00
C6       0.93865    0.62015    0.52214   1.00
C6       0.92326    0.70619    0.52593   1.00
H2       0.96083    0.59845    0.51520   1.00
H2       0.90026    0.72810    0.52455   1.00
H2       0.95358    0.63786    0.54381   1.00
H2       0.91270    0.68728    0.54911   1.00
C6       0.90179    0.60106    0.54137   1.00
C6       0.96324    0.72442    0.53865   1.00
H2       0.88354    0.58792    0.51874   1.00
H2       0.97684    0.73883    0.51365   1.00
C6       0.90876    0.56959    0.57374   1.00
C6       0.96281    0.75411    0.57337   1.00
H2       0.88412    0.62449    0.55384   1.00
H2       0.98286    0.70046    0.54623   1.00
C6       0.92827    0.53235    0.55694   1.00
C6       0.94061    0.79208    0.56264   1.00
C6       0.93408    0.58574    0.60753   1.00
C6       0.94441    0.73607    0.61052   1.00
C6       0.86863    0.55745    0.59092   1.00
C6       1.00557    0.76554    0.58309   1.00
H2       0.91142    0.52058    0.53258   1.00
H2       0.95250    0.80520    0.53614   1.00
H2       0.95768    0.53830    0.54649   1.00
H2       0.90971    0.78654    0.55777   1.00
H2       0.93053    0.50959    0.57910   1.00
H2       0.94279    0.81363    0.58598   1.00
H2       0.93644    0.56455    0.63119   1.00
H2       0.94678    0.75598    0.63527   1.00
H2       0.96358    0.59225    0.59756   1.00
H2       0.91351    0.72994    0.60610   1.00
H2       0.92141    0.61245    0.61935   1.00
H2       0.95898    0.70885    0.61824   1.00
H2       0.84971    0.54542    0.56828   1.00
H2       1.01982    0.77883    0.55788   1.00
H2       0.87195    0.53525    0.61354   1.00
H2       1.00678    0.78649    0.60706   1.00
H2       0.85372    0.58239    0.60396   1.00
H2       1.02258    0.74002    0.59168   1.00
C4       0.68475    0.41386    0.41035   1.00
C4       0.64309    0.41485    0.40915   1.00
C3       0.70603    0.37866    0.41644   1.00
C3       0.61996    0.38031    0.40986   1.00
C3       0.70646    0.44915    0.40536   1.00
C3       0.62330    0.45153    0.40712   1.00
C2       0.76905    0.41151    0.41085   1.00
C2       0.55878    0.41689    0.40868   1.00
C3       0.74689    0.37741    0.41651   1.00
C3       0.57909    0.38122    0.40983   1.00
C3       0.74804    0.44659    0.40540   1.00
C3       0.58164    0.45121    0.40736   1.00
H1       0.69263    0.35267    0.42146   1.00
H1       0.63194    0.35316    0.41003   1.00
C5       0.68665    0.48573    0.40074   1.00
C5       0.64502    0.48722    0.40468   1.00
H1       0.76049    0.35107    0.42090   1.00
H1       0.56409    0.35528    0.41053   1.00
H1       0.76448    0.47101    0.40168   1.00
H1       0.56652    0.47671    0.40621   1.00
C6       0.70985    0.52214    0.39135   1.00
C6       0.62381    0.52593    0.40674   1.00
H2       0.73155    0.51520    0.36917   1.00
H2       0.60190    0.52455    0.42974   1.00
H2       0.69214    0.54381    0.37642   1.00
H2       0.64272    0.54911    0.41730   1.00
C6       0.72894    0.54137    0.42821   1.00
C6       0.60558    0.53865    0.36676   1.00
H2       0.74208    0.51874    0.44646   1.00
H2       0.59117    0.51365    0.35316   1.00
C6       0.76041    0.57374    0.42124   1.00
C6       0.57589    0.57337    0.36719   1.00
H2       0.70551    0.55384    0.44588   1.00
H2       0.62954    0.54623    0.34714   1.00
C6       0.79765    0.55694    0.40173   1.00
C6       0.53792    0.56264    0.38939   1.00
C6       0.74426    0.60753    0.39592   1.00
C6       0.59393    0.61052    0.38559   1.00
C6       0.77255    0.59092    0.46137   1.00
C6       0.56446    0.58309    0.32443   1.00
H2       0.80942    0.53258    0.41858   1.00
H2       0.52480    0.53614    0.37750   1.00
H2       0.79170    0.54649    0.37232   1.00
H2       0.54346    0.55777    0.42029   1.00
H2       0.82041    0.57910    0.39947   1.00
H2       0.51637    0.58598    0.38721   1.00
H2       0.76545    0.63119    0.39356   1.00
H2       0.57402    0.63527    0.38322   1.00
H2       0.73775    0.59756    0.36642   1.00
H2       0.60006    0.60610    0.41649   1.00
H2       0.71755    0.61935    0.40859   1.00
H2       0.62115    0.61824    0.37102   1.00
H2       0.78458    0.56828    0.48029   1.00
H2       0.55117    0.55788    0.31018   1.00
H2       0.79475    0.61354    0.45805   1.00
H2       0.54351    0.60706    0.32322   1.00
H2       0.74761    0.60396    0.47628   1.00
H2       0.58998    0.59168    0.30742   1.00
C4       1.14525    0.41386    0.41965   1.00
C4       1.18691    0.41485    0.42085   1.00
C3       1.12397    0.37866    0.41356   1.00
C3       1.21004    0.38031    0.42014   1.00
C3       1.12354    0.44915    0.42464   1.00
C3       1.20670    0.45153    0.42288   1.00
C2       1.06095    0.41151    0.41915   1.00
C2       1.27122    0.41689    0.42132   1.00
C3       1.08311    0.37741    0.41349   1.00
C3       1.25091    0.38122    0.42017   1.00
C3       1.08196    0.44659    0.42460   1.00
C3       1.24836    0.45121    0.42264   1.00
H1       1.13737    0.35267    0.40854   1.00
H1       1.19806    0.35316    0.41997   1.00
C5       1.14335    0.48573    0.42926   1.00
C5       1.18498    0.48722    0.42532   1.00
H1       1.06951    0.35107    0.40910   1.00
H1       1.26591    0.35528    0.41947   1.00
H1       1.06552    0.47101    0.42832   1.00
H1       1.26348    0.47671    0.42379   1.00
C6       1.12015    0.52214    0.43865   1.00
C6       1.20619    0.52593    0.42326   1.00
H2       1.09845    0.51520    0.46083   1.00
H2       1.22810    0.52455    0.40026   1.00
H2       1.13786    0.54381    0.45358   1.00
H2       1.18728    0.54911    0.41270   1.00
C6       1.10106    0.54137    0.40179   1.00
C6       1.22442    0.53865    0.46324   1.00
H2       1.08792    0.51874    0.38354   1.00
H2       1.23883    0.51365    0.47684   1.00
C6       1.06959    0.57374    0.40876   1.00
C6       1.25411    0.57337    0.46281   1.00
H2       1.12449    0.55384    0.38412   1.00
H2       1.20046    0.54623    0.48286   1.00
C6       1.03235    0.55694    0.42827   1.00
C6       1.29208    0.56264    0.44061   1.00
C6       1.08574    0.60753    0.43408   1.00
C6       1.23607    0.61052    0.44441   1.00
C6       1.05745    0.59092    0.36863   1.00
C6       1.26554    0.58309    0.50557   1.00
H2       1.02058    0.53258    0.41142   1.00
H2       1.30520    0.53614    0.45250   1.00
H2       1.03830    0.54649    0.45768   1.00
H2       1.28654    0.55777    0.40971   1.00
H2       1.00959    0.57910    0.43053   1.00
H2       1.31363    0.58598    0.44279   1.00
H2       1.06455    0.63119    0.43644   1.00
H2       1.25598    0.63527    0.44678   1.00
H2       1.09225    0.59756    0.46358   1.00
H2       1.22994    0.60610    0.41351   1.00
H2       1.11245    0.61935    0.42141   1.00
H2       1.20885    0.61824    0.45898   1.00
H2       1.04542    0.56828    0.34971   1.00
H2       1.27883    0.55788    0.51982   1.00
H2       1.03525    0.61354    0.37195   1.00
H2       1.28649    0.60706    0.50678   1.00
H2       1.08239    0.60396    0.35372   1.00
H2       1.24002    0.59168    0.52258   1.00
C4       0.91035    0.18475    0.41386   1.00
C4       0.90915    0.14309    0.41485   1.00
C3       0.91644    0.20603    0.37866   1.00
C3       0.90986    0.11996    0.38031   1.00
C3       0.90536    0.20646    0.44915   1.00
C3       0.90712    0.12330    0.45153   1.00
C2       0.91085    0.26905    0.41151   1.00
C2       0.90868    0.05878    0.41689   1.00
C3       0.91651    0.24689    0.37741   1.00
C3       0.90983    0.07909    0.38122   1.00
C3       0.90540    0.24804    0.44659   1.00
C3       0.90736    0.08164    0.45121   1.00
H1       0.92146    0.19263    0.35267   1.00
H1       0.91003    0.13194    0.35316   1.00
C5       0.90074    0.18665    0.48573   1.00
C5       0.90468    0.14502    0.48722   1.00
H1       0.92090    0.26049    0.35107   1.00
H1       0.91053    0.06409    0.35528   1.00
H1       0.90168    0.26448    0.47101   1.00
H1       0.90621    0.06652    0.47671   1.00
C6       0.89135    0.20985    0.52214   1.00
C6       0.90674    0.12381    0.52593   1.00
H2       0.86917    0.23155    0.51520   1.00
H2       0.92974    0.10190    0.52455   1.00
H2       0.87642    0.19214    0.54381   1.00
H2       0.91730    0.14272    0.54911   1.00
C6       0.92821    0.22894    0.54137   1.00
C6       0.86676    0.10558    0.53865   1.00
H2       0.94646    0.24208    0.51874   1.00
H2       0.85316    0.09117    0.51365   1.00
C6       0.92124    0.26041    0.57374   1.00
C6       0.86719    0.07589    0.57337   1.00
H2       0.94588    0.20551    0.55384   1.00
H2       0.84714    0.12954    0.54623   1.00
C6       0.90173    0.29765    0.55694   1.00
C6       0.88939    0.03792    0.56264   1.00
C6       0.89592    0.24426    0.60753   1.00
C6       0.88559    0.09393    0.61052   1.00
C6       0.96137    0.27255    0.59092   1.00
C6       0.82443    0.06446    0.58309   1.00
H2       0.91858    0.30942    0.53258   1.00
H2       0.87750    0.02480    0.53614   1.00
H2       0.87232    0.29170    0.54649   1.00
H2       0.92029    0.04346    0.55777   1.00
H2       0.89947    0.32041    0.57910   1.00
H2       0.88721    0.01637    0.58598   1.00
H2       0.89356    0.26545    0.63119   1.00
H2       0.88322    0.07402    0.63527   1.00
H2       0.86642    0.23775    0.59756   1.00
H2       0.91649    0.10006    0.60610   1.00
H2       0.90859    0.21755    0.61935   1.00
H2       0.87102    0.12115    0.61824   1.00
H2       0.98029    0.28458    0.56828   1.00
H2       0.81018    0.05117    0.55788   1.00
H2       0.95805    0.29475    0.61354   1.00
H2       0.82322    0.04351    0.60706   1.00
H2       0.97628    0.24761    0.60396   1.00
H2       0.80742    0.08998    0.59168   1.00
C4       0.91386    0.41035    0.18475   1.00
C4       0.91485    0.40915    0.14309   1.00
C3       0.87866    0.41644    0.20603   1.00
C3       0.88031    0.40986    0.11996   1.00
C3       0.94915    0.40536    0.20646   1.00
C3       0.95153    0.40712    0.12330   1.00
C2       0.91151    0.41085    0.26905   1.00
C2       0.91689    0.40868    0.05878   1.00
C3       0.87741    0.41651    0.24689   1.00
C3       0.88122    0.40983    0.07909   1.00
C3       0.94659    0.40540    0.24804   1.00
C3       0.95121    0.40736    0.08164   1.00
H1       0.85267    0.42146    0.19263   1.00
H1       0.85316    0.41003    0.13194   1.00
C5       0.98573    0.40074    0.18665   1.00
C5       0.98722    0.40468    0.14502   1.00
H1       0.85107    0.42090    0.26049   1.00
H1       0.85528    0.41053    0.06409   1.00
H1       0.97101    0.40168    0.26448   1.00
H1       0.97671    0.40621    0.06652   1.00
C6       1.02214    0.39135    0.20985   1.00
C6       1.02593    0.40674    0.12381   1.00
H2       1.01520    0.36917    0.23155   1.00
H2       1.02455    0.42974    0.10190   1.00
H2       1.04381    0.37642    0.19214   1.00
H2       1.04911    0.41730    0.14272   1.00
C6       1.04137    0.42821    0.22894   1.00
C6       1.03865    0.36676    0.10558   1.00
H2       1.01874    0.44646    0.24208   1.00
H2       1.01365    0.35316    0.09117   1.00
C6       1.07374    0.42124    0.26041   1.00
C6       1.07337    0.36719    0.07589   1.00
H2       1.05384    0.44588    0.20551   1.00
H2       1.04623    0.34714    0.12954   1.00
C6       1.05694    0.40173    0.29765   1.00
C6       1.06264    0.38939    0.03792   1.00
C6       1.10753    0.39592    0.24426   1.00
C6       1.11052    0.38559    0.09393   1.00
C6       1.09092    0.46137    0.27255   1.00
C6       1.08309    0.32443    0.06446   1.00
H2       1.03258    0.41858    0.30942   1.00
H2       1.03614    0.37750    0.02480   1.00
H2       1.04649    0.37232    0.29170   1.00
H2       1.05777    0.42029    0.04346   1.00
H2       1.07910    0.39947    0.32041   1.00
H2       1.08598    0.38721    0.01637   1.00
H2       1.13119    0.39356    0.26545   1.00
H2       1.13527    0.38322    0.07402   1.00
H2       1.09756    0.36642    0.23775   1.00
H2       1.10610    0.41649    0.10006   1.00
H2       1.11935    0.40859    0.21755   1.00
H2       1.11824    0.37102    0.12115   1.00
H2       1.06828    0.48029    0.28458   1.00
H2       1.05788    0.31018    0.05117   1.00
H2       1.11354    0.45805    0.29475   1.00
H2       1.10706    0.32322    0.04351   1.00
H2       1.10396    0.47628    0.24761   1.00
H2       1.09168    0.30742    0.08998   1.00
