data_IRMOF10_SG202_interpen_Ligand12cp_label_j.

_audit_creation_method             'generated by an auxiliary program of Tobunporous'

_symmetry_space_group_name_H-M     'P 1'
_symmetry_Int_Tables_number        1
_symmetry_cell_setting             triclinic

_cell_length_a                    34.2800
_cell_length_b                    34.2800
_cell_length_c                    34.2800
_cell_angle_alpha                 90.0000
_cell_angle_beta                  90.0000
_cell_angle_gamma                 90.0000

loop_
_atom_site_label
_atom_site_fract_x
_atom_site_fract_y
_atom_site_fract_z
_atom_site_occupancy
O1       0.75000    0.75000    0.75000   1.00
Zn1      0.71720    0.78280    0.78280   1.00
Zn1      0.78280    0.71720    0.78280   1.00
Zn1      0.78280    0.78280    0.71720   1.00
Zn1      0.71720    0.71720    0.71720   1.00
O2       0.72650    0.77350    0.83820   1.00
O2       0.72650    0.83820    0.77350   1.00
O2       0.66180    0.77350    0.77350   1.00
O2       0.77350    0.72650    0.83820   1.00
O2       0.83820    0.72650    0.77350   1.00
O2       0.77350    0.66180    0.77350   1.00
O2       0.77350    0.83820    0.72650   1.00
O2       0.83820    0.77350    0.72650   1.00
O2       0.77350    0.77350    0.66180   1.00
O2       0.66180    0.72650    0.72650   1.00
O2       0.72650    0.66180    0.72650   1.00
O2       0.72650    0.72650    0.66180   1.00
C1       0.75000    0.75000    0.85520   1.00
C1       0.75000    0.85520    0.75000   1.00
C1       0.64480    0.75000    0.75000   1.00
C1       0.85520    0.75000    0.75000   1.00
C1       0.75000    0.64480    0.75000   1.00
C1       0.75000    0.75000    0.64480   1.00
O1       0.25000    0.25000    0.75000   1.00
Zn1      0.21720    0.28280    0.78280   1.00
Zn1      0.28280    0.21720    0.78280   1.00
Zn1      0.28280    0.28280    0.71720   1.00
Zn1      0.21720    0.21720    0.71720   1.00
O2       0.22650    0.27350    0.83820   1.00
O2       0.22650    0.33820    0.77350   1.00
O2       0.16180    0.27350    0.77350   1.00
O2       0.27350    0.22650    0.83820   1.00
O2       0.33820    0.22650    0.77350   1.00
O2       0.27350    0.16180    0.77350   1.00
O2       0.27350    0.33820    0.72650   1.00
O2       0.33820    0.27350    0.72650   1.00
O2       0.27350    0.27350    0.66180   1.00
O2       0.16180    0.22650    0.72650   1.00
O2       0.22650    0.16180    0.72650   1.00
O2       0.22650    0.22650    0.66180   1.00
C1       0.25000    0.25000    0.85520   1.00
C1       0.25000    0.35520    0.75000   1.00
C1       0.14480    0.25000    0.75000   1.00
C1       0.35520    0.25000    0.75000   1.00
C1       0.25000    0.14480    0.75000   1.00
C1       0.25000    0.25000    0.64480   1.00
O1       0.25000    0.75000    0.25000   1.00
Zn1      0.21720    0.78280    0.28280   1.00
Zn1      0.28280    0.71720    0.28280   1.00
Zn1      0.28280    0.78280    0.21720   1.00
Zn1      0.21720    0.71720    0.21720   1.00
O2       0.22650    0.77350    0.33820   1.00
O2       0.22650    0.83820    0.27350   1.00
O2       0.16180    0.77350    0.27350   1.00
O2       0.27350    0.72650    0.33820   1.00
O2       0.33820    0.72650    0.27350   1.00
O2       0.27350    0.66180    0.27350   1.00
O2       0.27350    0.83820    0.22650   1.00
O2       0.33820    0.77350    0.22650   1.00
O2       0.27350    0.77350    0.16180   1.00
O2       0.16180    0.72650    0.22650   1.00
O2       0.22650    0.66180    0.22650   1.00
O2       0.22650    0.72650    0.16180   1.00
C1       0.25000    0.75000    0.35520   1.00
C1       0.25000    0.85520    0.25000   1.00
C1       0.14480    0.75000    0.25000   1.00
C1       0.35520    0.75000    0.25000   1.00
C1       0.25000    0.64480    0.25000   1.00
C1       0.25000    0.75000    0.14480   1.00
O1       0.75000    0.25000    0.25000   1.00
Zn1      0.71720    0.28280    0.28280   1.00
Zn1      0.78280    0.21720    0.28280   1.00
Zn1      0.78280    0.28280    0.21720   1.00
Zn1      0.71720    0.21720    0.21720   1.00
O2       0.72650    0.27350    0.33820   1.00
O2       0.72650    0.33820    0.27350   1.00
O2       0.66180    0.27350    0.27350   1.00
O2       0.77350    0.22650    0.33820   1.00
O2       0.83820    0.22650    0.27350   1.00
O2       0.77350    0.16180    0.27350   1.00
O2       0.77350    0.33820    0.22650   1.00
O2       0.83820    0.27350    0.22650   1.00
O2       0.77350    0.27350    0.16180   1.00
O2       0.66180    0.22650    0.22650   1.00
O2       0.72650    0.16180    0.22650   1.00
O2       0.72650    0.22650    0.16180   1.00
C1       0.75000    0.25000    0.35520   1.00
C1       0.75000    0.35520    0.25000   1.00
C1       0.64480    0.25000    0.25000   1.00
C1       0.85520    0.25000    0.25000   1.00
C1       0.75000    0.14480    0.25000   1.00
C1       0.75000    0.25000    0.14480   1.00
O1       0.25000    0.25000    0.25000   1.00
Zn1      0.28280    0.21720    0.21720   1.00
Zn1      0.21720    0.28280    0.21720   1.00
Zn1      0.21720    0.21720    0.28280   1.00
Zn1      0.28280    0.28280    0.28280   1.00
O2       0.27350    0.22650    0.16180   1.00
O2       0.27350    0.16180    0.22650   1.00
O2       0.33820    0.22650    0.22650   1.00
O2       0.22650    0.27350    0.16180   1.00
O2       0.16180    0.27350    0.22650   1.00
O2       0.22650    0.33820    0.22650   1.00
O2       0.22650    0.16180    0.27350   1.00
O2       0.16180    0.22650    0.27350   1.00
O2       0.22650    0.22650    0.33820   1.00
O2       0.33820    0.27350    0.27350   1.00
O2       0.27350    0.33820    0.27350   1.00
O2       0.27350    0.27350    0.33820   1.00
C1       0.25000    0.25000    0.14480   1.00
C1       0.25000    0.14480    0.25000   1.00
C1       0.35520    0.25000    0.25000   1.00
C1       0.14480    0.25000    0.25000   1.00
C1       0.25000    0.35520    0.25000   1.00
C1       0.25000    0.25000    0.35520   1.00
O1       0.75000    0.75000    0.25000   1.00
Zn1      0.78280    0.71720    0.21720   1.00
Zn1      0.71720    0.78280    0.21720   1.00
Zn1      0.71720    0.71720    0.28280   1.00
Zn1      0.78280    0.78280    0.28280   1.00
O2       0.77350    0.72650    0.16180   1.00
O2       0.77350    0.66180    0.22650   1.00
O2       0.83820    0.72650    0.22650   1.00
O2       0.72650    0.77350    0.16180   1.00
O2       0.66180    0.77350    0.22650   1.00
O2       0.72650    0.83820    0.22650   1.00
O2       0.72650    0.66180    0.27350   1.00
O2       0.66180    0.72650    0.27350   1.00
O2       0.72650    0.72650    0.33820   1.00
O2       0.83820    0.77350    0.27350   1.00
O2       0.77350    0.83820    0.27350   1.00
O2       0.77350    0.77350    0.33820   1.00
C1       0.75000    0.75000    0.14480   1.00
C1       0.75000    0.64480    0.25000   1.00
C1       0.85520    0.75000    0.25000   1.00
C1       0.64480    0.75000    0.25000   1.00
C1       0.75000    0.85520    0.25000   1.00
C1       0.75000    0.75000    0.35520   1.00
O1       0.75000    0.25000    0.75000   1.00
Zn1      0.78280    0.21720    0.71720   1.00
Zn1      0.71720    0.28280    0.71720   1.00
Zn1      0.71720    0.21720    0.78280   1.00
Zn1      0.78280    0.28280    0.78280   1.00
O2       0.77350    0.22650    0.66180   1.00
O2       0.77350    0.16180    0.72650   1.00
O2       0.83820    0.22650    0.72650   1.00
O2       0.72650    0.27350    0.66180   1.00
O2       0.66180    0.27350    0.72650   1.00
O2       0.72650    0.33820    0.72650   1.00
O2       0.72650    0.16180    0.77350   1.00
O2       0.66180    0.22650    0.77350   1.00
O2       0.72650    0.22650    0.83820   1.00
O2       0.83820    0.27350    0.77350   1.00
O2       0.77350    0.33820    0.77350   1.00
O2       0.77350    0.27350    0.83820   1.00
C1       0.75000    0.25000    0.64480   1.00
C1       0.75000    0.14480    0.75000   1.00
C1       0.85520    0.25000    0.75000   1.00
C1       0.64480    0.25000    0.75000   1.00
C1       0.75000    0.35520    0.75000   1.00
C1       0.75000    0.25000    0.85520   1.00
O1       0.25000    0.75000    0.75000   1.00
Zn1      0.28280    0.71720    0.71720   1.00
Zn1      0.21720    0.78280    0.71720   1.00
Zn1      0.21720    0.71720    0.78280   1.00
Zn1      0.28280    0.78280    0.78280   1.00
O2       0.27350    0.72650    0.66180   1.00
O2       0.27350    0.66180    0.72650   1.00
O2       0.33820    0.72650    0.72650   1.00
O2       0.22650    0.77350    0.66180   1.00
O2       0.16180    0.77350    0.72650   1.00
O2       0.22650    0.83820    0.72650   1.00
O2       0.22650    0.66180    0.77350   1.00
O2       0.16180    0.72650    0.77350   1.00
O2       0.22650    0.72650    0.83820   1.00
O2       0.33820    0.77350    0.77350   1.00
O2       0.27350    0.83820    0.77350   1.00
O2       0.27350    0.77350    0.83820   1.00
C1       0.25000    0.75000    0.64480   1.00
C1       0.25000    0.64480    0.75000   1.00
C1       0.35520    0.75000    0.75000   1.00
C1       0.14480    0.75000    0.75000   1.00
C1       0.25000    0.85520    0.75000   1.00
C1       0.25000    0.75000    0.85520   1.00
O1       0.91500    0.91500    0.91500   1.00
Zn1      0.88220    0.94780    0.94780   1.00
Zn1      0.94780    0.88220    0.94780   1.00
Zn1      0.94780    0.94780    0.88220   1.00
Zn1      0.88220    0.88220    0.88220   1.00
O2       0.89150    0.93850    1.00320   1.00
O2       0.89150    1.00320    0.93850   1.00
O2       0.82680    0.93850    0.93850   1.00
O2       0.93850    0.89150    1.00320   1.00
O2       1.00320    0.89150    0.93850   1.00
O2       0.93850    0.82680    0.93850   1.00
O2       0.93850    1.00320    0.89150   1.00
O2       1.00320    0.93850    0.89150   1.00
O2       0.93850    0.93850    0.82680   1.00
O2       0.82680    0.89150    0.89150   1.00
O2       0.89150    0.82680    0.89150   1.00
O2       0.89150    0.89150    0.82680   1.00
C1       0.91500    0.91500    1.02020   1.00
C1       0.91500    1.02020    0.91500   1.00
C1       0.80980    0.91500    0.91500   1.00
C1       1.02020    0.91500    0.91500   1.00
C1       0.91500    0.80980    0.91500   1.00
C1       0.91500    0.91500    0.80980   1.00
O1       0.41500    0.41500    0.91500   1.00
Zn1      0.38220    0.44780    0.94780   1.00
Zn1      0.44780    0.38220    0.94780   1.00
Zn1      0.44780    0.44780    0.88220   1.00
Zn1      0.38220    0.38220    0.88220   1.00
O2       0.39150    0.43850    1.00320   1.00
O2       0.39150    0.50320    0.93850   1.00
O2       0.32680    0.43850    0.93850   1.00
O2       0.43850    0.39150    1.00320   1.00
O2       0.50320    0.39150    0.93850   1.00
O2       0.43850    0.32680    0.93850   1.00
O2       0.43850    0.50320    0.89150   1.00
O2       0.50320    0.43850    0.89150   1.00
O2       0.43850    0.43850    0.82680   1.00
O2       0.32680    0.39150    0.89150   1.00
O2       0.39150    0.32680    0.89150   1.00
O2       0.39150    0.39150    0.82680   1.00
C1       0.41500    0.41500    1.02020   1.00
C1       0.41500    0.52020    0.91500   1.00
C1       0.30980    0.41500    0.91500   1.00
C1       0.52020    0.41500    0.91500   1.00
C1       0.41500    0.30980    0.91500   1.00
C1       0.41500    0.41500    0.80980   1.00
O1       0.41500    0.91500    0.41500   1.00
Zn1      0.38220    0.94780    0.44780   1.00
Zn1      0.44780    0.88220    0.44780   1.00
Zn1      0.44780    0.94780    0.38220   1.00
Zn1      0.38220    0.88220    0.38220   1.00
O2       0.39150    0.93850    0.50320   1.00
O2       0.39150    1.00320    0.43850   1.00
O2       0.32680    0.93850    0.43850   1.00
O2       0.43850    0.89150    0.50320   1.00
O2       0.50320    0.89150    0.43850   1.00
O2       0.43850    0.82680    0.43850   1.00
O2       0.43850    1.00320    0.39150   1.00
O2       0.50320    0.93850    0.39150   1.00
O2       0.43850    0.93850    0.32680   1.00
O2       0.32680    0.89150    0.39150   1.00
O2       0.39150    0.82680    0.39150   1.00
O2       0.39150    0.89150    0.32680   1.00
C1       0.41500    0.91500    0.52020   1.00
C1       0.41500    1.02020    0.41500   1.00
C1       0.30980    0.91500    0.41500   1.00
C1       0.52020    0.91500    0.41500   1.00
C1       0.41500    0.80980    0.41500   1.00
C1       0.41500    0.91500    0.30980   1.00
O1       0.91500    0.41500    0.41500   1.00
Zn1      0.88220    0.44780    0.44780   1.00
Zn1      0.94780    0.38220    0.44780   1.00
Zn1      0.94780    0.44780    0.38220   1.00
Zn1      0.88220    0.38220    0.38220   1.00
O2       0.89150    0.43850    0.50320   1.00
O2       0.89150    0.50320    0.43850   1.00
O2       0.82680    0.43850    0.43850   1.00
O2       0.93850    0.39150    0.50320   1.00
O2       1.00320    0.39150    0.43850   1.00
O2       0.93850    0.32680    0.43850   1.00
O2       0.93850    0.50320    0.39150   1.00
O2       1.00320    0.43850    0.39150   1.00
O2       0.93850    0.43850    0.32680   1.00
O2       0.82680    0.39150    0.39150   1.00
O2       0.89150    0.32680    0.39150   1.00
O2       0.89150    0.39150    0.32680   1.00
C1       0.91500    0.41500    0.52020   1.00
C1       0.91500    0.52020    0.41500   1.00
C1       0.80980    0.41500    0.41500   1.00
C1       1.02020    0.41500    0.41500   1.00
C1       0.91500    0.30980    0.41500   1.00
C1       0.91500    0.41500    0.30980   1.00
O1       0.41500    0.41500    0.41500   1.00
Zn1      0.44780    0.38220    0.38220   1.00
Zn1      0.38220    0.44780    0.38220   1.00
Zn1      0.38220    0.38220    0.44780   1.00
Zn1      0.44780    0.44780    0.44780   1.00
O2       0.43850    0.39150    0.32680   1.00
O2       0.43850    0.32680    0.39150   1.00
O2       0.50320    0.39150    0.39150   1.00
O2       0.39150    0.43850    0.32680   1.00
O2       0.32680    0.43850    0.39150   1.00
O2       0.39150    0.50320    0.39150   1.00
O2       0.39150    0.32680    0.43850   1.00
O2       0.32680    0.39150    0.43850   1.00
O2       0.39150    0.39150    0.50320   1.00
O2       0.50320    0.43850    0.43850   1.00
O2       0.43850    0.50320    0.43850   1.00
O2       0.43850    0.43850    0.50320   1.00
C1       0.41500    0.41500    0.30980   1.00
C1       0.41500    0.30980    0.41500   1.00
C1       0.52020    0.41500    0.41500   1.00
C1       0.30980    0.41500    0.41500   1.00
C1       0.41500    0.52020    0.41500   1.00
C1       0.41500    0.41500    0.52020   1.00
O1       0.91500    0.91500    0.41500   1.00
Zn1      0.94780    0.88220    0.38220   1.00
Zn1      0.88220    0.94780    0.38220   1.00
Zn1      0.88220    0.88220    0.44780   1.00
Zn1      0.94780    0.94780    0.44780   1.00
O2       0.93850    0.89150    0.32680   1.00
O2       0.93850    0.82680    0.39150   1.00
O2       1.00320    0.89150    0.39150   1.00
O2       0.89150    0.93850    0.32680   1.00
O2       0.82680    0.93850    0.39150   1.00
O2       0.89150    1.00320    0.39150   1.00
O2       0.89150    0.82680    0.43850   1.00
O2       0.82680    0.89150    0.43850   1.00
O2       0.89150    0.89150    0.50320   1.00
O2       1.00320    0.93850    0.43850   1.00
O2       0.93850    1.00320    0.43850   1.00
O2       0.93850    0.93850    0.50320   1.00
C1       0.91500    0.91500    0.30980   1.00
C1       0.91500    0.80980    0.41500   1.00
C1       1.02020    0.91500    0.41500   1.00
C1       0.80980    0.91500    0.41500   1.00
C1       0.91500    1.02020    0.41500   1.00
C1       0.91500    0.91500    0.52020   1.00
O1       0.91500    0.41500    0.91500   1.00
Zn1      0.94780    0.38220    0.88220   1.00
Zn1      0.88220    0.44780    0.88220   1.00
Zn1      0.88220    0.38220    0.94780   1.00
Zn1      0.94780    0.44780    0.94780   1.00
O2       0.93850    0.39150    0.82680   1.00
O2       0.93850    0.32680    0.89150   1.00
O2       1.00320    0.39150    0.89150   1.00
O2       0.89150    0.43850    0.82680   1.00
O2       0.82680    0.43850    0.89150   1.00
O2       0.89150    0.50320    0.89150   1.00
O2       0.89150    0.32680    0.93850   1.00
O2       0.82680    0.39150    0.93850   1.00
O2       0.89150    0.39150    1.00320   1.00
O2       1.00320    0.43850    0.93850   1.00
O2       0.93850    0.50320    0.93850   1.00
O2       0.93850    0.43850    1.00320   1.00
C1       0.91500    0.41500    0.80980   1.00
C1       0.91500    0.30980    0.91500   1.00
C1       1.02020    0.41500    0.91500   1.00
C1       0.80980    0.41500    0.91500   1.00
C1       0.91500    0.52020    0.91500   1.00
C1       0.91500    0.41500    1.02020   1.00
O1       0.41500    0.91500    0.91500   1.00
Zn1      0.44780    0.88220    0.88220   1.00
Zn1      0.38220    0.94780    0.88220   1.00
Zn1      0.38220    0.88220    0.94780   1.00
Zn1      0.44780    0.94780    0.94780   1.00
O2       0.43850    0.89150    0.82680   1.00
O2       0.43850    0.82680    0.89150   1.00
O2       0.50320    0.89150    0.89150   1.00
O2       0.39150    0.93850    0.82680   1.00
O2       0.32680    0.93850    0.89150   1.00
O2       0.39150    1.00320    0.89150   1.00
O2       0.39150    0.82680    0.93850   1.00
O2       0.32680    0.89150    0.93850   1.00
O2       0.39150    0.89150    1.00320   1.00
O2       0.50320    0.93850    0.93850   1.00
O2       0.43850    1.00320    0.93850   1.00
O2       0.43850    0.93850    1.00320   1.00
C1       0.41500    0.91500    0.80980   1.00
C1       0.41500    0.80980    0.91500   1.00
C1       0.52020    0.91500    0.91500   1.00
C1       0.30980    0.91500    0.91500   1.00
C1       0.41500    1.02020    0.91500   1.00
C1       0.41500    0.91500    1.02020   1.00
C4       0.75075    0.75020    1.02067   1.00
C4       0.74925    0.74980    0.97933   1.00
C3       0.76340    0.71719    1.04244   1.00
C3       0.75481    0.71489    0.95756   1.00
C4       0.73913    0.78414    1.04150   1.00
C4       0.74233    0.78500    0.95850   1.00
C2       0.75015    0.74939    1.10352   1.00
C2       0.75018    0.74940    0.89648   1.00
C3       0.76268    0.71686    1.08310   1.00
C3       0.75559    0.71496    0.91690   1.00
C3       0.73901    0.78287    1.08306   1.00
C3       0.74308    0.78396    0.91694   1.00
H1       0.77497    0.69133    1.02888   1.00
H1       0.75772    0.68671    0.97112   1.00
C5       0.72853    0.81857    1.02065   1.00
C5       0.73430    0.82011    0.97935   1.00
H1       0.77219    0.69117    1.09886   1.00
H1       0.76021    0.68796    0.90114   1.00
H1       0.73093    0.80774    1.10053   1.00
H1       0.73763    0.80954    0.89947   1.00
C6       0.70976    0.85276    1.04234   1.00
C6       0.73345    0.85911    0.95766   1.00
H2       0.68786    0.86749    1.02358   1.00
H2       0.69196    0.84291    1.06737   1.00
C6       0.74079    0.88150    1.05724   1.00
H2       0.74504    0.88282    0.97642   1.00
H2       0.75379    0.85948    0.93263   1.00
C6       0.69220    0.86848    0.94276   1.00
H2       0.75881    0.89284    1.03274   1.00
C6       0.72158    0.91571    1.07832   1.00
H2       0.76106    0.86631    1.07760   1.00
C6       0.69172    0.90770    0.92168   1.00
H2       0.68224    0.84518    0.92240   1.00
H2       0.67093    0.86928    0.96726   1.00
H2       0.70186    0.93178    1.05822   1.00
H2       0.70448    0.90523    1.10380   1.00
H2       0.74431    0.93622    1.08898   1.00
H2       0.70076    0.93149    0.94178   1.00
H2       0.71177    0.90718    0.89620   1.00
H2       0.66179    0.91410    0.91102   1.00
C4       0.75020    1.02067    0.75075   1.00
C4       0.74980    0.97933    0.74925   1.00
C3       0.71719    1.04244    0.76340   1.00
C3       0.71489    0.95756    0.75481   1.00
C4       0.78414    1.04150    0.73913   1.00
C4       0.78500    0.95850    0.74233   1.00
C2       0.74939    1.10352    0.75015   1.00
C2       0.74940    0.89648    0.75018   1.00
C3       0.71686    1.08310    0.76268   1.00
C3       0.71496    0.91690    0.75559   1.00
C3       0.78287    1.08306    0.73901   1.00
C3       0.78396    0.91694    0.74308   1.00
H1       0.69133    1.02888    0.77497   1.00
H1       0.68671    0.97112    0.75772   1.00
C5       0.81857    1.02065    0.72853   1.00
C5       0.82011    0.97935    0.73430   1.00
H1       0.69117    1.09886    0.77219   1.00
H1       0.68796    0.90114    0.76021   1.00
H1       0.80774    1.10053    0.73093   1.00
H1       0.80954    0.89947    0.73763   1.00
C6       0.85276    1.04234    0.70976   1.00
C6       0.85911    0.95766    0.73345   1.00
H2       0.86749    1.02358    0.68786   1.00
H2       0.84291    1.06737    0.69196   1.00
C6       0.88150    1.05724    0.74079   1.00
H2       0.88282    0.97642    0.74504   1.00
H2       0.85948    0.93263    0.75379   1.00
C6       0.86848    0.94276    0.69220   1.00
H2       0.89284    1.03274    0.75881   1.00
C6       0.91571    1.07832    0.72158   1.00
H2       0.86631    1.07760    0.76106   1.00
C6       0.90770    0.92168    0.69172   1.00
H2       0.84518    0.92240    0.68224   1.00
H2       0.86928    0.96726    0.67093   1.00
H2       0.93178    1.05822    0.70186   1.00
H2       0.90523    1.10380    0.70448   1.00
H2       0.93622    1.08898    0.74431   1.00
H2       0.93149    0.94178    0.70076   1.00
H2       0.90718    0.89620    0.71177   1.00
H2       0.91410    0.91102    0.66179   1.00
C4       0.47933    0.75075    0.74980   1.00
C4       0.52067    0.74925    0.75020   1.00
C3       0.45756    0.76340    0.78281   1.00
C3       0.54244    0.75481    0.78511   1.00
C4       0.45850    0.73913    0.71586   1.00
C4       0.54150    0.74233    0.71500   1.00
C2       0.39648    0.75015    0.75061   1.00
C2       0.60352    0.75018    0.75060   1.00
C3       0.41690    0.76268    0.78314   1.00
C3       0.58310    0.75559    0.78504   1.00
C3       0.41694    0.73901    0.71713   1.00
C3       0.58306    0.74308    0.71604   1.00
H1       0.47112    0.77497    0.80867   1.00
H1       0.52888    0.75772    0.81329   1.00
C5       0.47935    0.72853    0.68143   1.00
C5       0.52065    0.73430    0.67989   1.00
H1       0.40114    0.77219    0.80883   1.00
H1       0.59886    0.76021    0.81204   1.00
H1       0.39947    0.73093    0.69226   1.00
H1       0.60053    0.73763    0.69046   1.00
C6       0.45766    0.70976    0.64724   1.00
C6       0.54234    0.73345    0.64089   1.00
H2       0.47642    0.68786    0.63251   1.00
H2       0.43263    0.69196    0.65709   1.00
C6       0.44276    0.74079    0.61850   1.00
H2       0.52358    0.74504    0.61718   1.00
H2       0.56737    0.75379    0.64052   1.00
C6       0.55724    0.69220    0.63152   1.00
H2       0.46726    0.75881    0.60716   1.00
C6       0.42168    0.72158    0.58429   1.00
H2       0.42240    0.76106    0.63369   1.00
C6       0.57832    0.69172    0.59230   1.00
H2       0.57760    0.68224    0.65482   1.00
H2       0.53274    0.67093    0.63072   1.00
H2       0.44178    0.70186    0.56822   1.00
H2       0.39620    0.70448    0.59477   1.00
H2       0.41102    0.74431    0.56378   1.00
H2       0.55822    0.70076    0.56851   1.00
H2       0.60380    0.71177    0.59282   1.00
H2       0.58898    0.66179    0.58590   1.00
C4       1.02067    0.75075    0.75020   1.00
C4       0.97933    0.74925    0.74980   1.00
C3       1.04244    0.76340    0.71719   1.00
C3       0.95756    0.75481    0.71489   1.00
C4       1.04150    0.73913    0.78414   1.00
C4       0.95850    0.74233    0.78500   1.00
C2       1.10352    0.75015    0.74939   1.00
C2       0.89648    0.75018    0.74940   1.00
C3       1.08310    0.76268    0.71686   1.00
C3       0.91690    0.75559    0.71496   1.00
C3       1.08306    0.73901    0.78287   1.00
C3       0.91694    0.74308    0.78396   1.00
H1       1.02888    0.77497    0.69133   1.00
H1       0.97112    0.75772    0.68671   1.00
C5       1.02065    0.72853    0.81857   1.00
C5       0.97935    0.73430    0.82011   1.00
H1       1.09886    0.77219    0.69117   1.00
H1       0.90114    0.76021    0.68796   1.00
H1       1.10053    0.73093    0.80774   1.00
H1       0.89947    0.73763    0.80954   1.00
C6       1.04234    0.70976    0.85276   1.00
C6       0.95766    0.73345    0.85911   1.00
H2       1.02358    0.68786    0.86749   1.00
H2       1.06737    0.69196    0.84291   1.00
C6       1.05724    0.74079    0.88150   1.00
H2       0.97642    0.74504    0.88282   1.00
H2       0.93263    0.75379    0.85948   1.00
C6       0.94276    0.69220    0.86848   1.00
H2       1.03274    0.75881    0.89284   1.00
C6       1.07832    0.72158    0.91571   1.00
H2       1.07760    0.76106    0.86631   1.00
C6       0.92168    0.69172    0.90770   1.00
H2       0.92240    0.68224    0.84518   1.00
H2       0.96726    0.67093    0.86928   1.00
H2       1.05822    0.70186    0.93178   1.00
H2       1.10380    0.70448    0.90523   1.00
H2       1.08898    0.74431    0.93622   1.00
H2       0.94178    0.70076    0.93149   1.00
H2       0.89620    0.71177    0.90718   1.00
H2       0.91102    0.66179    0.91410   1.00
C4       0.74980    0.47933    0.75075   1.00
C4       0.75020    0.52067    0.74925   1.00
C3       0.78281    0.45756    0.76340   1.00
C3       0.78511    0.54244    0.75481   1.00
C4       0.71586    0.45850    0.73913   1.00
C4       0.71500    0.54150    0.74233   1.00
C2       0.75061    0.39648    0.75015   1.00
C2       0.75060    0.60352    0.75018   1.00
C3       0.78314    0.41690    0.76268   1.00
C3       0.78504    0.58310    0.75559   1.00
C3       0.71713    0.41694    0.73901   1.00
C3       0.71604    0.58306    0.74308   1.00
H1       0.80867    0.47112    0.77497   1.00
H1       0.81329    0.52888    0.75772   1.00
C5       0.68143    0.47935    0.72853   1.00
C5       0.67989    0.52065    0.73430   1.00
H1       0.80883    0.40114    0.77219   1.00
H1       0.81204    0.59886    0.76021   1.00
H1       0.69226    0.39947    0.73093   1.00
H1       0.69046    0.60053    0.73763   1.00
C6       0.64724    0.45766    0.70976   1.00
C6       0.64089    0.54234    0.73345   1.00
H2       0.63251    0.47642    0.68786   1.00
H2       0.65709    0.43263    0.69196   1.00
C6       0.61850    0.44276    0.74079   1.00
H2       0.61718    0.52358    0.74504   1.00
H2       0.64052    0.56737    0.75379   1.00
C6       0.63152    0.55724    0.69220   1.00
H2       0.60716    0.46726    0.75881   1.00
C6       0.58429    0.42168    0.72158   1.00
H2       0.63369    0.42240    0.76106   1.00
C6       0.59230    0.57832    0.69172   1.00
H2       0.65482    0.57760    0.68224   1.00
H2       0.63072    0.53274    0.67093   1.00
H2       0.56822    0.44178    0.70186   1.00
H2       0.59477    0.39620    0.70448   1.00
H2       0.56378    0.41102    0.74431   1.00
H2       0.56851    0.55822    0.70076   1.00
H2       0.59282    0.60380    0.71177   1.00
H2       0.58590    0.58898    0.66179   1.00
C4       0.75075    0.74980    0.47933   1.00
C4       0.74925    0.75020    0.52067   1.00
C3       0.76340    0.78281    0.45756   1.00
C3       0.75481    0.78511    0.54244   1.00
C4       0.73913    0.71586    0.45850   1.00
C4       0.74233    0.71500    0.54150   1.00
C2       0.75015    0.75061    0.39648   1.00
C2       0.75018    0.75060    0.60352   1.00
C3       0.76268    0.78314    0.41690   1.00
C3       0.75559    0.78504    0.58310   1.00
C3       0.73901    0.71713    0.41694   1.00
C3       0.74308    0.71604    0.58306   1.00
H1       0.77497    0.80867    0.47112   1.00
H1       0.75772    0.81329    0.52888   1.00
C5       0.72853    0.68143    0.47935   1.00
C5       0.73430    0.67989    0.52065   1.00
H1       0.77219    0.80883    0.40114   1.00
H1       0.76021    0.81204    0.59886   1.00
H1       0.73093    0.69226    0.39947   1.00
H1       0.73763    0.69046    0.60053   1.00
C6       0.70976    0.64724    0.45766   1.00
C6       0.73345    0.64089    0.54234   1.00
H2       0.68786    0.63251    0.47642   1.00
H2       0.69196    0.65709    0.43263   1.00
C6       0.74079    0.61850    0.44276   1.00
H2       0.74504    0.61718    0.52358   1.00
H2       0.75379    0.64052    0.56737   1.00
C6       0.69220    0.63152    0.55724   1.00
H2       0.75881    0.60716    0.46726   1.00
C6       0.72158    0.58429    0.42168   1.00
H2       0.76106    0.63369    0.42240   1.00
C6       0.69172    0.59230    0.57832   1.00
H2       0.68224    0.65482    0.57760   1.00
H2       0.67093    0.63072    0.53274   1.00
H2       0.70186    0.56822    0.44178   1.00
H2       0.70448    0.59477    0.39620   1.00
H2       0.74431    0.56378    0.41102   1.00
H2       0.70076    0.56851    0.55822   1.00
H2       0.71177    0.59282    0.60380   1.00
H2       0.66179    0.58590    0.58898   1.00
C4       0.25075    0.25020    1.02067   1.00
C4       0.24925    0.24980    0.97933   1.00
C3       0.26340    0.21719    1.04244   1.00
C3       0.25481    0.21489    0.95756   1.00
C4       0.23913    0.28414    1.04150   1.00
C4       0.24233    0.28500    0.95850   1.00
C2       0.25015    0.24939    1.10352   1.00
C2       0.25018    0.24940    0.89648   1.00
C3       0.26268    0.21686    1.08310   1.00
C3       0.25559    0.21496    0.91690   1.00
C3       0.23901    0.28287    1.08306   1.00
C3       0.24308    0.28396    0.91694   1.00
H1       0.27497    0.19133    1.02888   1.00
H1       0.25772    0.18671    0.97112   1.00
C5       0.22853    0.31857    1.02065   1.00
C5       0.23430    0.32011    0.97935   1.00
H1       0.27219    0.19117    1.09886   1.00
H1       0.26021    0.18796    0.90114   1.00
H1       0.23093    0.30774    1.10053   1.00
H1       0.23763    0.30954    0.89947   1.00
C6       0.20976    0.35276    1.04234   1.00
C6       0.23345    0.35911    0.95766   1.00
H2       0.18786    0.36749    1.02358   1.00
H2       0.19196    0.34291    1.06737   1.00
C6       0.24079    0.38150    1.05724   1.00
H2       0.24504    0.38282    0.97642   1.00
H2       0.25379    0.35948    0.93263   1.00
C6       0.19220    0.36848    0.94276   1.00
H2       0.25881    0.39284    1.03274   1.00
C6       0.22158    0.41571    1.07832   1.00
H2       0.26106    0.36631    1.07760   1.00
C6       0.19172    0.40770    0.92168   1.00
H2       0.18224    0.34518    0.92240   1.00
H2       0.17093    0.36928    0.96726   1.00
H2       0.20186    0.43178    1.05822   1.00
H2       0.20448    0.40523    1.10380   1.00
H2       0.24431    0.43622    1.08898   1.00
H2       0.20076    0.43149    0.94178   1.00
H2       0.21177    0.40718    0.89620   1.00
H2       0.16179    0.41410    0.91102   1.00
C4       0.25020    0.52067    0.75075   1.00
C4       0.24980    0.47933    0.74925   1.00
C3       0.21719    0.54244    0.76340   1.00
C3       0.21489    0.45756    0.75481   1.00
C4       0.28414    0.54150    0.73913   1.00
C4       0.28500    0.45850    0.74233   1.00
C2       0.24939    0.60352    0.75015   1.00
C2       0.24940    0.39648    0.75018   1.00
C3       0.21686    0.58310    0.76268   1.00
C3       0.21496    0.41690    0.75559   1.00
C3       0.28287    0.58306    0.73901   1.00
C3       0.28396    0.41694    0.74308   1.00
H1       0.19133    0.52888    0.77497   1.00
H1       0.18671    0.47112    0.75772   1.00
C5       0.31857    0.52065    0.72853   1.00
C5       0.32011    0.47935    0.73430   1.00
H1       0.19117    0.59886    0.77219   1.00
H1       0.18796    0.40114    0.76021   1.00
H1       0.30774    0.60053    0.73093   1.00
H1       0.30954    0.39947    0.73763   1.00
C6       0.35276    0.54234    0.70976   1.00
C6       0.35911    0.45766    0.73345   1.00
H2       0.36749    0.52358    0.68786   1.00
H2       0.34291    0.56737    0.69196   1.00
C6       0.38150    0.55724    0.74079   1.00
H2       0.38282    0.47642    0.74504   1.00
H2       0.35948    0.43263    0.75379   1.00
C6       0.36848    0.44276    0.69220   1.00
H2       0.39284    0.53274    0.75881   1.00
C6       0.41571    0.57832    0.72158   1.00
H2       0.36631    0.57760    0.76106   1.00
C6       0.40770    0.42168    0.69172   1.00
H2       0.34518    0.42240    0.68224   1.00
H2       0.36928    0.46726    0.67093   1.00
H2       0.43178    0.55822    0.70186   1.00
H2       0.40523    0.60380    0.70448   1.00
H2       0.43622    0.58898    0.74431   1.00
H2       0.43149    0.44178    0.70076   1.00
H2       0.40718    0.39620    0.71177   1.00
H2       0.41410    0.41102    0.66179   1.00
C4       -0.02067   0.25075    0.74980   1.00
C4       0.02067    0.24925    0.75020   1.00
C3       -0.04244   0.26340    0.78281   1.00
C3       0.04244    0.25481    0.78511   1.00
C4       -0.04150   0.23913    0.71586   1.00
C4       0.04150    0.24233    0.71500   1.00
C2       -0.10352   0.25015    0.75061   1.00
C2       0.10352    0.25018    0.75060   1.00
C3       -0.08310   0.26268    0.78314   1.00
C3       0.08310    0.25559    0.78504   1.00
C3       -0.08306   0.23901    0.71713   1.00
C3       0.08306    0.24308    0.71604   1.00
H1       -0.02888   0.27497    0.80867   1.00
H1       0.02888    0.25772    0.81329   1.00
C5       -0.02065   0.22853    0.68143   1.00
C5       0.02065    0.23430    0.67989   1.00
H1       -0.09886   0.27219    0.80883   1.00
H1       0.09886    0.26021    0.81204   1.00
H1       -0.10053   0.23093    0.69226   1.00
H1       0.10053    0.23763    0.69046   1.00
C6       -0.04234   0.20976    0.64724   1.00
C6       0.04234    0.23345    0.64089   1.00
H2       -0.02358   0.18786    0.63251   1.00
H2       -0.06737   0.19196    0.65709   1.00
C6       -0.05724   0.24079    0.61850   1.00
H2       0.02358    0.24504    0.61718   1.00
H2       0.06737    0.25379    0.64052   1.00
C6       0.05724    0.19220    0.63152   1.00
H2       -0.03274   0.25881    0.60716   1.00
C6       -0.07832   0.22158    0.58429   1.00
H2       -0.07760   0.26106    0.63369   1.00
C6       0.07832    0.19172    0.59230   1.00
H2       0.07760    0.18224    0.65482   1.00
H2       0.03274    0.17093    0.63072   1.00
H2       -0.05822   0.20186    0.56822   1.00
H2       -0.10380   0.20448    0.59477   1.00
H2       -0.08898   0.24431    0.56378   1.00
H2       0.05822    0.20076    0.56851   1.00
H2       0.10380    0.21177    0.59282   1.00
H2       0.08898    0.16179    0.58590   1.00
C4       0.52067    0.25075    0.75020   1.00
C4       0.47933    0.24925    0.74980   1.00
C3       0.54244    0.26340    0.71719   1.00
C3       0.45756    0.25481    0.71489   1.00
C4       0.54150    0.23913    0.78414   1.00
C4       0.45850    0.24233    0.78500   1.00
C2       0.60352    0.25015    0.74939   1.00
C2       0.39648    0.25018    0.74940   1.00
C3       0.58310    0.26268    0.71686   1.00
C3       0.41690    0.25559    0.71496   1.00
C3       0.58306    0.23901    0.78287   1.00
C3       0.41694    0.24308    0.78396   1.00
H1       0.52888    0.27497    0.69133   1.00
H1       0.47112    0.25772    0.68671   1.00
C5       0.52065    0.22853    0.81857   1.00
C5       0.47935    0.23430    0.82011   1.00
H1       0.59886    0.27219    0.69117   1.00
H1       0.40114    0.26021    0.68796   1.00
H1       0.60053    0.23093    0.80774   1.00
H1       0.39947    0.23763    0.80954   1.00
C6       0.54234    0.20976    0.85276   1.00
C6       0.45766    0.23345    0.85911   1.00
H2       0.52358    0.18786    0.86749   1.00
H2       0.56737    0.19196    0.84291   1.00
C6       0.55724    0.24079    0.88150   1.00
H2       0.47642    0.24504    0.88282   1.00
H2       0.43263    0.25379    0.85948   1.00
C6       0.44276    0.19220    0.86848   1.00
H2       0.53274    0.25881    0.89284   1.00
C6       0.57832    0.22158    0.91571   1.00
H2       0.57760    0.26106    0.86631   1.00
C6       0.42168    0.19172    0.90770   1.00
H2       0.42240    0.18224    0.84518   1.00
H2       0.46726    0.17093    0.86928   1.00
H2       0.55822    0.20186    0.93178   1.00
H2       0.60380    0.20448    0.90523   1.00
H2       0.58898    0.24431    0.93622   1.00
H2       0.44178    0.20076    0.93149   1.00
H2       0.39620    0.21177    0.90718   1.00
H2       0.41102    0.16179    0.91410   1.00
C4       0.24980    -0.02067   0.75075   1.00
C4       0.25020    0.02067    0.74925   1.00
C3       0.28281    -0.04244   0.76340   1.00
C3       0.28511    0.04244    0.75481   1.00
C4       0.21586    -0.04150   0.73913   1.00
C4       0.21500    0.04150    0.74233   1.00
C2       0.25061    -0.10352   0.75015   1.00
C2       0.25060    0.10352    0.75018   1.00
C3       0.28314    -0.08310   0.76268   1.00
C3       0.28504    0.08310    0.75559   1.00
C3       0.21713    -0.08306   0.73901   1.00
C3       0.21604    0.08306    0.74308   1.00
H1       0.30867    -0.02888   0.77497   1.00
H1       0.31329    0.02888    0.75772   1.00
C5       0.18143    -0.02065   0.72853   1.00
C5       0.17989    0.02065    0.73430   1.00
H1       0.30883    -0.09886   0.77219   1.00
H1       0.31204    0.09886    0.76021   1.00
H1       0.19226    -0.10053   0.73093   1.00
H1       0.19046    0.10053    0.73763   1.00
C6       0.14724    -0.04234   0.70976   1.00
C6       0.14089    0.04234    0.73345   1.00
H2       0.13251    -0.02358   0.68786   1.00
H2       0.15709    -0.06737   0.69196   1.00
C6       0.11850    -0.05724   0.74079   1.00
H2       0.11718    0.02358    0.74504   1.00
H2       0.14052    0.06737    0.75379   1.00
C6       0.13152    0.05724    0.69220   1.00
H2       0.10716    -0.03274   0.75881   1.00
C6       0.08429    -0.07832   0.72158   1.00
H2       0.13369    -0.07760   0.76106   1.00
C6       0.09230    0.07832    0.69172   1.00
H2       0.15482    0.07760    0.68224   1.00
H2       0.13072    0.03274    0.67093   1.00
H2       0.06822    -0.05822   0.70186   1.00
H2       0.09477    -0.10380   0.70448   1.00
H2       0.06378    -0.08898   0.74431   1.00
H2       0.06851    0.05822    0.70076   1.00
H2       0.09282    0.10380    0.71177   1.00
H2       0.08590    0.08898    0.66179   1.00
C4       0.25075    0.24980    0.47933   1.00
C4       0.24925    0.25020    0.52067   1.00
C3       0.26340    0.28281    0.45756   1.00
C3       0.25481    0.28511    0.54244   1.00
C4       0.23913    0.21586    0.45850   1.00
C4       0.24233    0.21500    0.54150   1.00
C2       0.25015    0.25061    0.39648   1.00
C2       0.25018    0.25060    0.60352   1.00
C3       0.26268    0.28314    0.41690   1.00
C3       0.25559    0.28504    0.58310   1.00
C3       0.23901    0.21713    0.41694   1.00
C3       0.24308    0.21604    0.58306   1.00
H1       0.27497    0.30867    0.47112   1.00
H1       0.25772    0.31329    0.52888   1.00
C5       0.22853    0.18143    0.47935   1.00
C5       0.23430    0.17989    0.52065   1.00
H1       0.27219    0.30883    0.40114   1.00
H1       0.26021    0.31204    0.59886   1.00
H1       0.23093    0.19226    0.39947   1.00
H1       0.23763    0.19046    0.60053   1.00
C6       0.20976    0.14724    0.45766   1.00
C6       0.23345    0.14089    0.54234   1.00
H2       0.18786    0.13251    0.47642   1.00
H2       0.19196    0.15709    0.43263   1.00
C6       0.24079    0.11850    0.44276   1.00
H2       0.24504    0.11718    0.52358   1.00
H2       0.25379    0.14052    0.56737   1.00
C6       0.19220    0.13152    0.55724   1.00
H2       0.25881    0.10716    0.46726   1.00
C6       0.22158    0.08429    0.42168   1.00
H2       0.26106    0.13369    0.42240   1.00
C6       0.19172    0.09230    0.57832   1.00
H2       0.18224    0.15482    0.57760   1.00
H2       0.17093    0.13072    0.53274   1.00
H2       0.20186    0.06822    0.44178   1.00
H2       0.20448    0.09477    0.39620   1.00
H2       0.24431    0.06378    0.41102   1.00
H2       0.20076    0.06851    0.55822   1.00
H2       0.21177    0.09282    0.60380   1.00
H2       0.16179    0.08590    0.58898   1.00
C4       0.25075    0.75020    0.52067   1.00
C4       0.24925    0.74980    0.47933   1.00
C3       0.26340    0.71719    0.54244   1.00
C3       0.25481    0.71489    0.45756   1.00
C4       0.23913    0.78414    0.54150   1.00
C4       0.24233    0.78500    0.45850   1.00
C2       0.25015    0.74939    0.60352   1.00
C2       0.25018    0.74940    0.39648   1.00
C3       0.26268    0.71686    0.58310   1.00
C3       0.25559    0.71496    0.41690   1.00
C3       0.23901    0.78287    0.58306   1.00
C3       0.24308    0.78396    0.41694   1.00
H1       0.27497    0.69133    0.52888   1.00
H1       0.25772    0.68671    0.47112   1.00
C5       0.22853    0.81857    0.52065   1.00
C5       0.23430    0.82011    0.47935   1.00
H1       0.27219    0.69117    0.59886   1.00
H1       0.26021    0.68796    0.40114   1.00
H1       0.23093    0.80774    0.60053   1.00
H1       0.23763    0.80954    0.39947   1.00
C6       0.20976    0.85276    0.54234   1.00
C6       0.23345    0.85911    0.45766   1.00
H2       0.18786    0.86749    0.52358   1.00
H2       0.19196    0.84291    0.56737   1.00
C6       0.24079    0.88150    0.55724   1.00
H2       0.24504    0.88282    0.47642   1.00
H2       0.25379    0.85948    0.43263   1.00
C6       0.19220    0.86848    0.44276   1.00
H2       0.25881    0.89284    0.53274   1.00
C6       0.22158    0.91571    0.57832   1.00
H2       0.26106    0.86631    0.57760   1.00
C6       0.19172    0.90770    0.42168   1.00
H2       0.18224    0.84518    0.42240   1.00
H2       0.17093    0.86928    0.46726   1.00
H2       0.20186    0.93178    0.55822   1.00
H2       0.20448    0.90523    0.60380   1.00
H2       0.24431    0.93622    0.58898   1.00
H2       0.20076    0.93149    0.44178   1.00
H2       0.21177    0.90718    0.39620   1.00
H2       0.16179    0.91410    0.41102   1.00
C4       0.25020    1.02067    0.25075   1.00
C4       0.24980    0.97933    0.24925   1.00
C3       0.21719    1.04244    0.26340   1.00
C3       0.21489    0.95756    0.25481   1.00
C4       0.28414    1.04150    0.23913   1.00
C4       0.28500    0.95850    0.24233   1.00
C2       0.24939    1.10352    0.25015   1.00
C2       0.24940    0.89648    0.25018   1.00
C3       0.21686    1.08310    0.26268   1.00
C3       0.21496    0.91690    0.25559   1.00
C3       0.28287    1.08306    0.23901   1.00
C3       0.28396    0.91694    0.24308   1.00
H1       0.19133    1.02888    0.27497   1.00
H1       0.18671    0.97112    0.25772   1.00
C5       0.31857    1.02065    0.22853   1.00
C5       0.32011    0.97935    0.23430   1.00
H1       0.19117    1.09886    0.27219   1.00
H1       0.18796    0.90114    0.26021   1.00
H1       0.30774    1.10053    0.23093   1.00
H1       0.30954    0.89947    0.23763   1.00
C6       0.35276    1.04234    0.20976   1.00
C6       0.35911    0.95766    0.23345   1.00
H2       0.36749    1.02358    0.18786   1.00
H2       0.34291    1.06737    0.19196   1.00
C6       0.38150    1.05724    0.24079   1.00
H2       0.38282    0.97642    0.24504   1.00
H2       0.35948    0.93263    0.25379   1.00
C6       0.36848    0.94276    0.19220   1.00
H2       0.39284    1.03274    0.25881   1.00
C6       0.41571    1.07832    0.22158   1.00
H2       0.36631    1.07760    0.26106   1.00
C6       0.40770    0.92168    0.19172   1.00
H2       0.34518    0.92240    0.18224   1.00
H2       0.36928    0.96726    0.17093   1.00
H2       0.43178    1.05822    0.20186   1.00
H2       0.40523    1.10380    0.20448   1.00
H2       0.43622    1.08898    0.24431   1.00
H2       0.43149    0.94178    0.20076   1.00
H2       0.40718    0.89620    0.21177   1.00
H2       0.41410    0.91102    0.16179   1.00
C4       -0.02067   0.75075    0.24980   1.00
C4       0.02067    0.74925    0.25020   1.00
C3       -0.04244   0.76340    0.28281   1.00
C3       0.04244    0.75481    0.28511   1.00
C4       -0.04150   0.73913    0.21586   1.00
C4       0.04150    0.74233    0.21500   1.00
C2       -0.10352   0.75015    0.25061   1.00
C2       0.10352    0.75018    0.25060   1.00
C3       -0.08310   0.76268    0.28314   1.00
C3       0.08310    0.75559    0.28504   1.00
C3       -0.08306   0.73901    0.21713   1.00
C3       0.08306    0.74308    0.21604   1.00
H1       -0.02888   0.77497    0.30867   1.00
H1       0.02888    0.75772    0.31329   1.00
C5       -0.02065   0.72853    0.18143   1.00
C5       0.02065    0.73430    0.17989   1.00
H1       -0.09886   0.77219    0.30883   1.00
H1       0.09886    0.76021    0.31204   1.00
H1       -0.10053   0.73093    0.19226   1.00
H1       0.10053    0.73763    0.19046   1.00
C6       -0.04234   0.70976    0.14724   1.00
C6       0.04234    0.73345    0.14089   1.00
H2       -0.02358   0.68786    0.13251   1.00
H2       -0.06737   0.69196    0.15709   1.00
C6       -0.05724   0.74079    0.11850   1.00
H2       0.02358    0.74504    0.11718   1.00
H2       0.06737    0.75379    0.14052   1.00
C6       0.05724    0.69220    0.13152   1.00
H2       -0.03274   0.75881    0.10716   1.00
C6       -0.07832   0.72158    0.08429   1.00
H2       -0.07760   0.76106    0.13369   1.00
C6       0.07832    0.69172    0.09230   1.00
H2       0.07760    0.68224    0.15482   1.00
H2       0.03274    0.67093    0.13072   1.00
H2       -0.05822   0.70186    0.06822   1.00
H2       -0.10380   0.70448    0.09477   1.00
H2       -0.08898   0.74431    0.06378   1.00
H2       0.05822    0.70076    0.06851   1.00
H2       0.10380    0.71177    0.09282   1.00
H2       0.08898    0.66179    0.08590   1.00
C4       0.52067    0.75075    0.25020   1.00
C4       0.47933    0.74925    0.24980   1.00
C3       0.54244    0.76340    0.21719   1.00
C3       0.45756    0.75481    0.21489   1.00
C4       0.54150    0.73913    0.28414   1.00
C4       0.45850    0.74233    0.28500   1.00
C2       0.60352    0.75015    0.24939   1.00
C2       0.39648    0.75018    0.24940   1.00
C3       0.58310    0.76268    0.21686   1.00
C3       0.41690    0.75559    0.21496   1.00
C3       0.58306    0.73901    0.28287   1.00
C3       0.41694    0.74308    0.28396   1.00
H1       0.52888    0.77497    0.19133   1.00
H1       0.47112    0.75772    0.18671   1.00
C5       0.52065    0.72853    0.31857   1.00
C5       0.47935    0.73430    0.32011   1.00
H1       0.59886    0.77219    0.19117   1.00
H1       0.40114    0.76021    0.18796   1.00
H1       0.60053    0.73093    0.30774   1.00
H1       0.39947    0.73763    0.30954   1.00
C6       0.54234    0.70976    0.35276   1.00
C6       0.45766    0.73345    0.35911   1.00
H2       0.52358    0.68786    0.36749   1.00
H2       0.56737    0.69196    0.34291   1.00
C6       0.55724    0.74079    0.38150   1.00
H2       0.47642    0.74504    0.38282   1.00
H2       0.43263    0.75379    0.35948   1.00
C6       0.44276    0.69220    0.36848   1.00
H2       0.53274    0.75881    0.39284   1.00
C6       0.57832    0.72158    0.41571   1.00
H2       0.57760    0.76106    0.36631   1.00
C6       0.42168    0.69172    0.40770   1.00
H2       0.42240    0.68224    0.34518   1.00
H2       0.46726    0.67093    0.36928   1.00
H2       0.55822    0.70186    0.43178   1.00
H2       0.60380    0.70448    0.40523   1.00
H2       0.58898    0.74431    0.43622   1.00
H2       0.44178    0.70076    0.43149   1.00
H2       0.39620    0.71177    0.40718   1.00
H2       0.41102    0.66179    0.41410   1.00
C4       0.24980    0.47933    0.25075   1.00
C4       0.25020    0.52067    0.24925   1.00
C3       0.28281    0.45756    0.26340   1.00
C3       0.28511    0.54244    0.25481   1.00
C4       0.21586    0.45850    0.23913   1.00
C4       0.21500    0.54150    0.24233   1.00
C2       0.25061    0.39648    0.25015   1.00
C2       0.25060    0.60352    0.25018   1.00
C3       0.28314    0.41690    0.26268   1.00
C3       0.28504    0.58310    0.25559   1.00
C3       0.21713    0.41694    0.23901   1.00
C3       0.21604    0.58306    0.24308   1.00
H1       0.30867    0.47112    0.27497   1.00
H1       0.31329    0.52888    0.25772   1.00
C5       0.18143    0.47935    0.22853   1.00
C5       0.17989    0.52065    0.23430   1.00
H1       0.30883    0.40114    0.27219   1.00
H1       0.31204    0.59886    0.26021   1.00
H1       0.19226    0.39947    0.23093   1.00
H1       0.19046    0.60053    0.23763   1.00
C6       0.14724    0.45766    0.20976   1.00
C6       0.14089    0.54234    0.23345   1.00
H2       0.13251    0.47642    0.18786   1.00
H2       0.15709    0.43263    0.19196   1.00
C6       0.11850    0.44276    0.24079   1.00
H2       0.11718    0.52358    0.24504   1.00
H2       0.14052    0.56737    0.25379   1.00
C6       0.13152    0.55724    0.19220   1.00
H2       0.10716    0.46726    0.25881   1.00
C6       0.08429    0.42168    0.22158   1.00
H2       0.13369    0.42240    0.26106   1.00
C6       0.09230    0.57832    0.19172   1.00
H2       0.15482    0.57760    0.18224   1.00
H2       0.13072    0.53274    0.17093   1.00
H2       0.06822    0.44178    0.20186   1.00
H2       0.09477    0.39620    0.20448   1.00
H2       0.06378    0.41102    0.24431   1.00
H2       0.06851    0.55822    0.20076   1.00
H2       0.09282    0.60380    0.21177   1.00
H2       0.08590    0.58898    0.16179   1.00
C4       0.25075    0.74980    -0.02067   1.00
C4       0.24925    0.75020    0.02067   1.00
C3       0.26340    0.78281    -0.04244   1.00
C3       0.25481    0.78511    0.04244   1.00
C4       0.23913    0.71586    -0.04150   1.00
C4       0.24233    0.71500    0.04150   1.00
C2       0.25015    0.75061    -0.10352   1.00
C2       0.25018    0.75060    0.10352   1.00
C3       0.26268    0.78314    -0.08310   1.00
C3       0.25559    0.78504    0.08310   1.00
C3       0.23901    0.71713    -0.08306   1.00
C3       0.24308    0.71604    0.08306   1.00
H1       0.27497    0.80867    -0.02888   1.00
H1       0.25772    0.81329    0.02888   1.00
C5       0.22853    0.68143    -0.02065   1.00
C5       0.23430    0.67989    0.02065   1.00
H1       0.27219    0.80883    -0.09886   1.00
H1       0.26021    0.81204    0.09886   1.00
H1       0.23093    0.69226    -0.10053   1.00
H1       0.23763    0.69046    0.10053   1.00
C6       0.20976    0.64724    -0.04234   1.00
C6       0.23345    0.64089    0.04234   1.00
H2       0.18786    0.63251    -0.02358   1.00
H2       0.19196    0.65709    -0.06737   1.00
C6       0.24079    0.61850    -0.05724   1.00
H2       0.24504    0.61718    0.02358   1.00
H2       0.25379    0.64052    0.06737   1.00
C6       0.19220    0.63152    0.05724   1.00
H2       0.25881    0.60716    -0.03274   1.00
C6       0.22158    0.58429    -0.07832   1.00
H2       0.26106    0.63369    -0.07760   1.00
C6       0.19172    0.59230    0.07832   1.00
H2       0.18224    0.65482    0.07760   1.00
H2       0.17093    0.63072    0.03274   1.00
H2       0.20186    0.56822    -0.05822   1.00
H2       0.20448    0.59477    -0.10380   1.00
H2       0.24431    0.56378    -0.08898   1.00
H2       0.20076    0.56851    0.05822   1.00
H2       0.21177    0.59282    0.10380   1.00
H2       0.16179    0.58590    0.08898   1.00
C4       0.75075    0.25020    0.52067   1.00
C4       0.74925    0.24980    0.47933   1.00
C3       0.76340    0.21719    0.54244   1.00
C3       0.75481    0.21489    0.45756   1.00
C4       0.73913    0.28414    0.54150   1.00
C4       0.74233    0.28500    0.45850   1.00
C2       0.75015    0.24939    0.60352   1.00
C2       0.75018    0.24940    0.39648   1.00
C3       0.76268    0.21686    0.58310   1.00
C3       0.75559    0.21496    0.41690   1.00
C3       0.73901    0.28287    0.58306   1.00
C3       0.74308    0.28396    0.41694   1.00
H1       0.77497    0.19133    0.52888   1.00
H1       0.75772    0.18671    0.47112   1.00
C5       0.72853    0.31857    0.52065   1.00
C5       0.73430    0.32011    0.47935   1.00
H1       0.77219    0.19117    0.59886   1.00
H1       0.76021    0.18796    0.40114   1.00
H1       0.73093    0.30774    0.60053   1.00
H1       0.73763    0.30954    0.39947   1.00
C6       0.70976    0.35276    0.54234   1.00
C6       0.73345    0.35911    0.45766   1.00
H2       0.68786    0.36749    0.52358   1.00
H2       0.69196    0.34291    0.56737   1.00
C6       0.74079    0.38150    0.55724   1.00
H2       0.74504    0.38282    0.47642   1.00
H2       0.75379    0.35948    0.43263   1.00
C6       0.69220    0.36848    0.44276   1.00
H2       0.75881    0.39284    0.53274   1.00
C6       0.72158    0.41571    0.57832   1.00
H2       0.76106    0.36631    0.57760   1.00
C6       0.69172    0.40770    0.42168   1.00
H2       0.68224    0.34518    0.42240   1.00
H2       0.67093    0.36928    0.46726   1.00
H2       0.70186    0.43178    0.55822   1.00
H2       0.70448    0.40523    0.60380   1.00
H2       0.74431    0.43622    0.58898   1.00
H2       0.70076    0.43149    0.44178   1.00
H2       0.71177    0.40718    0.39620   1.00
H2       0.66179    0.41410    0.41102   1.00
C4       0.75020    0.52067    0.25075   1.00
C4       0.74980    0.47933    0.24925   1.00
C3       0.71719    0.54244    0.26340   1.00
C3       0.71489    0.45756    0.25481   1.00
C4       0.78414    0.54150    0.23913   1.00
C4       0.78500    0.45850    0.24233   1.00
C2       0.74939    0.60352    0.25015   1.00
C2       0.74940    0.39648    0.25018   1.00
C3       0.71686    0.58310    0.26268   1.00
C3       0.71496    0.41690    0.25559   1.00
C3       0.78287    0.58306    0.23901   1.00
C3       0.78396    0.41694    0.24308   1.00
H1       0.69133    0.52888    0.27497   1.00
H1       0.68671    0.47112    0.25772   1.00
C5       0.81857    0.52065    0.22853   1.00
C5       0.82011    0.47935    0.23430   1.00
H1       0.69117    0.59886    0.27219   1.00
H1       0.68796    0.40114    0.26021   1.00
H1       0.80774    0.60053    0.23093   1.00
H1       0.80954    0.39947    0.23763   1.00
C6       0.85276    0.54234    0.20976   1.00
C6       0.85911    0.45766    0.23345   1.00
H2       0.86749    0.52358    0.18786   1.00
H2       0.84291    0.56737    0.19196   1.00
C6       0.88150    0.55724    0.24079   1.00
H2       0.88282    0.47642    0.24504   1.00
H2       0.85948    0.43263    0.25379   1.00
C6       0.86848    0.44276    0.19220   1.00
H2       0.89284    0.53274    0.25881   1.00
C6       0.91571    0.57832    0.22158   1.00
H2       0.86631    0.57760    0.26106   1.00
C6       0.90770    0.42168    0.19172   1.00
H2       0.84518    0.42240    0.18224   1.00
H2       0.86928    0.46726    0.17093   1.00
H2       0.93178    0.55822    0.20186   1.00
H2       0.90523    0.60380    0.20448   1.00
H2       0.93622    0.58898    0.24431   1.00
H2       0.93149    0.44178    0.20076   1.00
H2       0.90718    0.39620    0.21177   1.00
H2       0.91410    0.41102    0.16179   1.00
C4       0.47933    0.25075    0.24980   1.00
C4       0.52067    0.24925    0.25020   1.00
C3       0.45756    0.26340    0.28281   1.00
C3       0.54244    0.25481    0.28511   1.00
C4       0.45850    0.23913    0.21586   1.00
C4       0.54150    0.24233    0.21500   1.00
C2       0.39648    0.25015    0.25061   1.00
C2       0.60352    0.25018    0.25060   1.00
C3       0.41690    0.26268    0.28314   1.00
C3       0.58310    0.25559    0.28504   1.00
C3       0.41694    0.23901    0.21713   1.00
C3       0.58306    0.24308    0.21604   1.00
H1       0.47112    0.27497    0.30867   1.00
H1       0.52888    0.25772    0.31329   1.00
C5       0.47935    0.22853    0.18143   1.00
C5       0.52065    0.23430    0.17989   1.00
H1       0.40114    0.27219    0.30883   1.00
H1       0.59886    0.26021    0.31204   1.00
H1       0.39947    0.23093    0.19226   1.00
H1       0.60053    0.23763    0.19046   1.00
C6       0.45766    0.20976    0.14724   1.00
C6       0.54234    0.23345    0.14089   1.00
H2       0.47642    0.18786    0.13251   1.00
H2       0.43263    0.19196    0.15709   1.00
C6       0.44276    0.24079    0.11850   1.00
H2       0.52358    0.24504    0.11718   1.00
H2       0.56737    0.25379    0.14052   1.00
C6       0.55724    0.19220    0.13152   1.00
H2       0.46726    0.25881    0.10716   1.00
C6       0.42168    0.22158    0.08429   1.00
H2       0.42240    0.26106    0.13369   1.00
C6       0.57832    0.19172    0.09230   1.00
H2       0.57760    0.18224    0.15482   1.00
H2       0.53274    0.17093    0.13072   1.00
H2       0.44178    0.20186    0.06822   1.00
H2       0.39620    0.20448    0.09477   1.00
H2       0.41102    0.24431    0.06378   1.00
H2       0.55822    0.20076    0.06851   1.00
H2       0.60380    0.21177    0.09282   1.00
H2       0.58898    0.16179    0.08590   1.00
C4       1.02067    0.25075    0.25020   1.00
C4       0.97933    0.24925    0.24980   1.00
C3       1.04244    0.26340    0.21719   1.00
C3       0.95756    0.25481    0.21489   1.00
C4       1.04150    0.23913    0.28414   1.00
C4       0.95850    0.24233    0.28500   1.00
C2       1.10352    0.25015    0.24939   1.00
C2       0.89648    0.25018    0.24940   1.00
C3       1.08310    0.26268    0.21686   1.00
C3       0.91690    0.25559    0.21496   1.00
C3       1.08306    0.23901    0.28287   1.00
C3       0.91694    0.24308    0.28396   1.00
H1       1.02888    0.27497    0.19133   1.00
H1       0.97112    0.25772    0.18671   1.00
C5       1.02065    0.22853    0.31857   1.00
C5       0.97935    0.23430    0.32011   1.00
H1       1.09886    0.27219    0.19117   1.00
H1       0.90114    0.26021    0.18796   1.00
H1       1.10053    0.23093    0.30774   1.00
H1       0.89947    0.23763    0.30954   1.00
C6       1.04234    0.20976    0.35276   1.00
C6       0.95766    0.23345    0.35911   1.00
H2       1.02358    0.18786    0.36749   1.00
H2       1.06737    0.19196    0.34291   1.00
C6       1.05724    0.24079    0.38150   1.00
H2       0.97642    0.24504    0.38282   1.00
H2       0.93263    0.25379    0.35948   1.00
C6       0.94276    0.19220    0.36848   1.00
H2       1.03274    0.25881    0.39284   1.00
C6       1.07832    0.22158    0.41571   1.00
H2       1.07760    0.26106    0.36631   1.00
C6       0.92168    0.19172    0.40770   1.00
H2       0.92240    0.18224    0.34518   1.00
H2       0.96726    0.17093    0.36928   1.00
H2       1.05822    0.20186    0.43178   1.00
H2       1.10380    0.20448    0.40523   1.00
H2       1.08898    0.24431    0.43622   1.00
H2       0.94178    0.20076    0.43149   1.00
H2       0.89620    0.21177    0.40718   1.00
H2       0.91102    0.16179    0.41410   1.00
C4       0.74980    -0.02067   0.25075   1.00
C4       0.75020    0.02067    0.24925   1.00
C3       0.78281    -0.04244   0.26340   1.00
C3       0.78511    0.04244    0.25481   1.00
C4       0.71586    -0.04150   0.23913   1.00
C4       0.71500    0.04150    0.24233   1.00
C2       0.75061    -0.10352   0.25015   1.00
C2       0.75060    0.10352    0.25018   1.00
C3       0.78314    -0.08310   0.26268   1.00
C3       0.78504    0.08310    0.25559   1.00
C3       0.71713    -0.08306   0.23901   1.00
C3       0.71604    0.08306    0.24308   1.00
H1       0.80867    -0.02888   0.27497   1.00
H1       0.81329    0.02888    0.25772   1.00
C5       0.68143    -0.02065   0.22853   1.00
C5       0.67989    0.02065    0.23430   1.00
H1       0.80883    -0.09886   0.27219   1.00
H1       0.81204    0.09886    0.26021   1.00
H1       0.69226    -0.10053   0.23093   1.00
H1       0.69046    0.10053    0.23763   1.00
C6       0.64724    -0.04234   0.20976   1.00
C6       0.64089    0.04234    0.23345   1.00
H2       0.63251    -0.02358   0.18786   1.00
H2       0.65709    -0.06737   0.19196   1.00
C6       0.61850    -0.05724   0.24079   1.00
H2       0.61718    0.02358    0.24504   1.00
H2       0.64052    0.06737    0.25379   1.00
C6       0.63152    0.05724    0.19220   1.00
H2       0.60716    -0.03274   0.25881   1.00
C6       0.58429    -0.07832   0.22158   1.00
H2       0.63369    -0.07760   0.26106   1.00
C6       0.59230    0.07832    0.19172   1.00
H2       0.65482    0.07760    0.18224   1.00
H2       0.63072    0.03274    0.17093   1.00
H2       0.56822    -0.05822   0.20186   1.00
H2       0.59477    -0.10380   0.20448   1.00
H2       0.56378    -0.08898   0.24431   1.00
H2       0.56851    0.05822    0.20076   1.00
H2       0.59282    0.10380    0.21177   1.00
H2       0.58590    0.08898    0.16179   1.00
C4       0.75075    0.24980    -0.02067   1.00
C4       0.74925    0.25020    0.02067   1.00
C3       0.76340    0.28281    -0.04244   1.00
C3       0.75481    0.28511    0.04244   1.00
C4       0.73913    0.21586    -0.04150   1.00
C4       0.74233    0.21500    0.04150   1.00
C2       0.75015    0.25061    -0.10352   1.00
C2       0.75018    0.25060    0.10352   1.00
C3       0.76268    0.28314    -0.08310   1.00
C3       0.75559    0.28504    0.08310   1.00
C3       0.73901    0.21713    -0.08306   1.00
C3       0.74308    0.21604    0.08306   1.00
H1       0.77497    0.30867    -0.02888   1.00
H1       0.75772    0.31329    0.02888   1.00
C5       0.72853    0.18143    -0.02065   1.00
C5       0.73430    0.17989    0.02065   1.00
H1       0.77219    0.30883    -0.09886   1.00
H1       0.76021    0.31204    0.09886   1.00
H1       0.73093    0.19226    -0.10053   1.00
H1       0.73763    0.19046    0.10053   1.00
C6       0.70976    0.14724    -0.04234   1.00
C6       0.73345    0.14089    0.04234   1.00
H2       0.68786    0.13251    -0.02358   1.00
H2       0.69196    0.15709    -0.06737   1.00
C6       0.74079    0.11850    -0.05724   1.00
H2       0.74504    0.11718    0.02358   1.00
H2       0.75379    0.14052    0.06737   1.00
C6       0.69220    0.13152    0.05724   1.00
H2       0.75881    0.10716    -0.03274   1.00
C6       0.72158    0.08429    -0.07832   1.00
H2       0.76106    0.13369    -0.07760   1.00
C6       0.69172    0.09230    0.07832   1.00
H2       0.68224    0.15482    0.07760   1.00
H2       0.67093    0.13072    0.03274   1.00
H2       0.70186    0.06822    -0.05822   1.00
H2       0.70448    0.09477    -0.10380   1.00
H2       0.74431    0.06378    -0.08898   1.00
H2       0.70076    0.06851    0.05822   1.00
H2       0.71177    0.09282    0.10380   1.00
H2       0.66179    0.08590    0.08898   1.00
C4       0.91575    0.91520    1.18567   1.00
C4       0.91425    0.91480    1.14433   1.00
C3       0.92840    0.88219    1.20744   1.00
C3       0.91981    0.87989    1.12256   1.00
C4       0.90413    0.94914    1.20650   1.00
C4       0.90733    0.95000    1.12350   1.00
C2       0.91515    0.91439    1.26852   1.00
C2       0.91518    0.91440    1.06148   1.00
C3       0.92768    0.88186    1.24810   1.00
C3       0.92059    0.87996    1.08190   1.00
C3       0.90401    0.94787    1.24806   1.00
C3       0.90808    0.94896    1.08194   1.00
H1       0.93997    0.85633    1.19388   1.00
H1       0.92272    0.85171    1.13612   1.00
C5       0.89353    0.98357    1.18565   1.00
C5       0.89930    0.98511    1.14435   1.00
H1       0.93719    0.85617    1.26386   1.00
H1       0.92521    0.85296    1.06614   1.00
H1       0.89593    0.97274    1.26553   1.00
H1       0.90263    0.97454    1.06447   1.00
C6       0.87476    1.01776    1.20734   1.00
C6       0.89845    1.02411    1.12266   1.00
H2       0.85286    1.03249    1.18858   1.00
H2       0.85696    1.00791    1.23237   1.00
C6       0.90579    1.04650    1.22224   1.00
H2       0.91004    1.04782    1.14142   1.00
H2       0.91879    1.02448    1.09763   1.00
C6       0.85720    1.03348    1.10776   1.00
H2       0.92381    1.05784    1.19774   1.00
C6       0.88658    1.08071    1.24332   1.00
H2       0.92606    1.03131    1.24260   1.00
C6       0.85672    1.07270    1.08668   1.00
H2       0.84724    1.01018    1.08740   1.00
H2       0.83593    1.03428    1.13226   1.00
H2       0.86686    1.09678    1.22322   1.00
H2       0.86948    1.07023    1.26880   1.00
H2       0.90931    1.10122    1.25398   1.00
H2       0.86576    1.09649    1.10678   1.00
H2       0.87677    1.07218    1.06120   1.00
H2       0.82679    1.07910    1.07602   1.00
C4       0.91520    1.18567    0.91575   1.00
C4       0.91480    1.14433    0.91425   1.00
C3       0.88219    1.20744    0.92840   1.00
C3       0.87989    1.12256    0.91981   1.00
C4       0.94914    1.20650    0.90413   1.00
C4       0.95000    1.12350    0.90733   1.00
C2       0.91439    1.26852    0.91515   1.00
C2       0.91440    1.06148    0.91518   1.00
C3       0.88186    1.24810    0.92768   1.00
C3       0.87996    1.08190    0.92059   1.00
C3       0.94787    1.24806    0.90401   1.00
C3       0.94896    1.08194    0.90808   1.00
H1       0.85633    1.19388    0.93997   1.00
H1       0.85171    1.13612    0.92272   1.00
C5       0.98357    1.18565    0.89353   1.00
C5       0.98511    1.14435    0.89930   1.00
H1       0.85617    1.26386    0.93719   1.00
H1       0.85296    1.06614    0.92521   1.00
H1       0.97274    1.26553    0.89593   1.00
H1       0.97454    1.06447    0.90263   1.00
C6       1.01776    1.20734    0.87476   1.00
C6       1.02411    1.12266    0.89845   1.00
H2       1.03249    1.18858    0.85286   1.00
H2       1.00791    1.23237    0.85696   1.00
C6       1.04650    1.22224    0.90579   1.00
H2       1.04782    1.14142    0.91004   1.00
H2       1.02448    1.09763    0.91879   1.00
C6       1.03348    1.10776    0.85720   1.00
H2       1.05784    1.19774    0.92381   1.00
C6       1.08071    1.24332    0.88658   1.00
H2       1.03131    1.24260    0.92606   1.00
C6       1.07270    1.08668    0.85672   1.00
H2       1.01018    1.08740    0.84724   1.00
H2       1.03428    1.13226    0.83593   1.00
H2       1.09678    1.22322    0.86686   1.00
H2       1.07023    1.26880    0.86948   1.00
H2       1.10122    1.25398    0.90931   1.00
H2       1.09649    1.10678    0.86576   1.00
H2       1.07218    1.06120    0.87677   1.00
H2       1.07910    1.07602    0.82679   1.00
C4       0.64433    0.91575    0.91480   1.00
C4       0.68567    0.91425    0.91520   1.00
C3       0.62256    0.92840    0.94781   1.00
C3       0.70744    0.91981    0.95011   1.00
C4       0.62350    0.90413    0.88086   1.00
C4       0.70650    0.90733    0.88000   1.00
C2       0.56148    0.91515    0.91561   1.00
C2       0.76852    0.91518    0.91560   1.00
C3       0.58190    0.92768    0.94814   1.00
C3       0.74810    0.92059    0.95004   1.00
C3       0.58194    0.90401    0.88213   1.00
C3       0.74806    0.90808    0.88104   1.00
H1       0.63612    0.93997    0.97367   1.00
H1       0.69388    0.92272    0.97829   1.00
C5       0.64435    0.89353    0.84643   1.00
C5       0.68565    0.89930    0.84489   1.00
H1       0.56614    0.93719    0.97383   1.00
H1       0.76386    0.92521    0.97704   1.00
H1       0.56447    0.89593    0.85726   1.00
H1       0.76553    0.90263    0.85546   1.00
C6       0.62266    0.87476    0.81224   1.00
C6       0.70734    0.89845    0.80589   1.00
H2       0.64142    0.85286    0.79751   1.00
H2       0.59763    0.85696    0.82209   1.00
C6       0.60776    0.90579    0.78350   1.00
H2       0.68858    0.91004    0.78218   1.00
H2       0.73237    0.91879    0.80552   1.00
C6       0.72224    0.85720    0.79652   1.00
H2       0.63226    0.92381    0.77216   1.00
C6       0.58668    0.88658    0.74929   1.00
H2       0.58740    0.92606    0.79869   1.00
C6       0.74332    0.85672    0.75730   1.00
H2       0.74260    0.84724    0.81982   1.00
H2       0.69774    0.83593    0.79572   1.00
H2       0.60678    0.86686    0.73322   1.00
H2       0.56120    0.86948    0.75977   1.00
H2       0.57602    0.90931    0.72878   1.00
H2       0.72322    0.86576    0.73351   1.00
H2       0.76880    0.87677    0.75782   1.00
H2       0.75398    0.82679    0.75090   1.00
C4       1.18567    0.91575    0.91520   1.00
C4       1.14433    0.91425    0.91480   1.00
C3       1.20744    0.92840    0.88219   1.00
C3       1.12256    0.91981    0.87989   1.00
C4       1.20650    0.90413    0.94914   1.00
C4       1.12350    0.90733    0.95000   1.00
C2       1.26852    0.91515    0.91439   1.00
C2       1.06148    0.91518    0.91440   1.00
C3       1.24810    0.92768    0.88186   1.00
C3       1.08190    0.92059    0.87996   1.00
C3       1.24806    0.90401    0.94787   1.00
C3       1.08194    0.90808    0.94896   1.00
H1       1.19388    0.93997    0.85633   1.00
H1       1.13612    0.92272    0.85171   1.00
C5       1.18565    0.89353    0.98357   1.00
C5       1.14435    0.89930    0.98511   1.00
H1       1.26386    0.93719    0.85617   1.00
H1       1.06614    0.92521    0.85296   1.00
H1       1.26553    0.89593    0.97274   1.00
H1       1.06447    0.90263    0.97454   1.00
C6       1.20734    0.87476    1.01776   1.00
C6       1.12266    0.89845    1.02411   1.00
H2       1.18858    0.85286    1.03249   1.00
H2       1.23237    0.85696    1.00791   1.00
C6       1.22224    0.90579    1.04650   1.00
H2       1.14142    0.91004    1.04782   1.00
H2       1.09763    0.91879    1.02448   1.00
C6       1.10776    0.85720    1.03348   1.00
H2       1.19774    0.92381    1.05784   1.00
C6       1.24332    0.88658    1.08071   1.00
H2       1.24260    0.92606    1.03131   1.00
C6       1.08668    0.85672    1.07270   1.00
H2       1.08740    0.84724    1.01018   1.00
H2       1.13226    0.83593    1.03428   1.00
H2       1.22322    0.86686    1.09678   1.00
H2       1.26880    0.86948    1.07023   1.00
H2       1.25398    0.90931    1.10122   1.00
H2       1.10678    0.86576    1.09649   1.00
H2       1.06120    0.87677    1.07218   1.00
H2       1.07602    0.82679    1.07910   1.00
C4       0.91480    0.64433    0.91575   1.00
C4       0.91520    0.68567    0.91425   1.00
C3       0.94781    0.62256    0.92840   1.00
C3       0.95011    0.70744    0.91981   1.00
C4       0.88086    0.62350    0.90413   1.00
C4       0.88000    0.70650    0.90733   1.00
C2       0.91561    0.56148    0.91515   1.00
C2       0.91560    0.76852    0.91518   1.00
C3       0.94814    0.58190    0.92768   1.00
C3       0.95004    0.74810    0.92059   1.00
C3       0.88213    0.58194    0.90401   1.00
C3       0.88104    0.74806    0.90808   1.00
H1       0.97367    0.63612    0.93997   1.00
H1       0.97829    0.69388    0.92272   1.00
C5       0.84643    0.64435    0.89353   1.00
C5       0.84489    0.68565    0.89930   1.00
H1       0.97383    0.56614    0.93719   1.00
H1       0.97704    0.76386    0.92521   1.00
H1       0.85726    0.56447    0.89593   1.00
H1       0.85546    0.76553    0.90263   1.00
C6       0.81224    0.62266    0.87476   1.00
C6       0.80589    0.70734    0.89845   1.00
H2       0.79751    0.64142    0.85286   1.00
H2       0.82209    0.59763    0.85696   1.00
C6       0.78350    0.60776    0.90579   1.00
H2       0.78218    0.68858    0.91004   1.00
H2       0.80552    0.73237    0.91879   1.00
C6       0.79652    0.72224    0.85720   1.00
H2       0.77216    0.63226    0.92381   1.00
C6       0.74929    0.58668    0.88658   1.00
H2       0.79869    0.58740    0.92606   1.00
C6       0.75730    0.74332    0.85672   1.00
H2       0.81982    0.74260    0.84724   1.00
H2       0.79572    0.69774    0.83593   1.00
H2       0.73322    0.60678    0.86686   1.00
H2       0.75977    0.56120    0.86948   1.00
H2       0.72878    0.57602    0.90931   1.00
H2       0.73351    0.72322    0.86576   1.00
H2       0.75782    0.76880    0.87677   1.00
H2       0.75090    0.75398    0.82679   1.00
C4       0.91575    0.91480    0.64433   1.00
C4       0.91425    0.91520    0.68567   1.00
C3       0.92840    0.94781    0.62256   1.00
C3       0.91981    0.95011    0.70744   1.00
C4       0.90413    0.88086    0.62350   1.00
C4       0.90733    0.88000    0.70650   1.00
C2       0.91515    0.91561    0.56148   1.00
C2       0.91518    0.91560    0.76852   1.00
C3       0.92768    0.94814    0.58190   1.00
C3       0.92059    0.95004    0.74810   1.00
C3       0.90401    0.88213    0.58194   1.00
C3       0.90808    0.88104    0.74806   1.00
H1       0.93997    0.97367    0.63612   1.00
H1       0.92272    0.97829    0.69388   1.00
C5       0.89353    0.84643    0.64435   1.00
C5       0.89930    0.84489    0.68565   1.00
H1       0.93719    0.97383    0.56614   1.00
H1       0.92521    0.97704    0.76386   1.00
H1       0.89593    0.85726    0.56447   1.00
H1       0.90263    0.85546    0.76553   1.00
C6       0.87476    0.81224    0.62266   1.00
C6       0.89845    0.80589    0.70734   1.00
H2       0.85286    0.79751    0.64142   1.00
H2       0.85696    0.82209    0.59763   1.00
C6       0.90579    0.78350    0.60776   1.00
H2       0.91004    0.78218    0.68858   1.00
H2       0.91879    0.80552    0.73237   1.00
C6       0.85720    0.79652    0.72224   1.00
H2       0.92381    0.77216    0.63226   1.00
C6       0.88658    0.74929    0.58668   1.00
H2       0.92606    0.79869    0.58740   1.00
C6       0.85672    0.75730    0.74332   1.00
H2       0.84724    0.81982    0.74260   1.00
H2       0.83593    0.79572    0.69774   1.00
H2       0.86686    0.73322    0.60678   1.00
H2       0.86948    0.75977    0.56120   1.00
H2       0.90931    0.72878    0.57602   1.00
H2       0.86576    0.73351    0.72322   1.00
H2       0.87677    0.75782    0.76880   1.00
H2       0.82679    0.75090    0.75398   1.00
C4       0.41575    0.41520    1.18567   1.00
C4       0.41425    0.41480    1.14433   1.00
C3       0.42840    0.38219    1.20744   1.00
C3       0.41981    0.37989    1.12256   1.00
C4       0.40413    0.44914    1.20650   1.00
C4       0.40733    0.45000    1.12350   1.00
C2       0.41515    0.41439    1.26852   1.00
C2       0.41518    0.41440    1.06148   1.00
C3       0.42768    0.38186    1.24810   1.00
C3       0.42059    0.37996    1.08190   1.00
C3       0.40401    0.44787    1.24806   1.00
C3       0.40808    0.44896    1.08194   1.00
H1       0.43997    0.35633    1.19388   1.00
H1       0.42272    0.35171    1.13612   1.00
C5       0.39353    0.48357    1.18565   1.00
C5       0.39930    0.48511    1.14435   1.00
H1       0.43719    0.35617    1.26386   1.00
H1       0.42521    0.35296    1.06614   1.00
H1       0.39593    0.47274    1.26553   1.00
H1       0.40263    0.47454    1.06447   1.00
C6       0.37476    0.51776    1.20734   1.00
C6       0.39845    0.52411    1.12266   1.00
H2       0.35286    0.53249    1.18858   1.00
H2       0.35696    0.50791    1.23237   1.00
C6       0.40579    0.54650    1.22224   1.00
H2       0.41004    0.54782    1.14142   1.00
H2       0.41879    0.52448    1.09763   1.00
C6       0.35720    0.53348    1.10776   1.00
H2       0.42381    0.55784    1.19774   1.00
C6       0.38658    0.58071    1.24332   1.00
H2       0.42606    0.53131    1.24260   1.00
C6       0.35672    0.57270    1.08668   1.00
H2       0.34724    0.51018    1.08740   1.00
H2       0.33593    0.53428    1.13226   1.00
H2       0.36686    0.59678    1.22322   1.00
H2       0.36948    0.57023    1.26880   1.00
H2       0.40931    0.60122    1.25398   1.00
H2       0.36576    0.59649    1.10678   1.00
H2       0.37677    0.57218    1.06120   1.00
H2       0.32679    0.57910    1.07602   1.00
C4       0.41520    0.68567    0.91575   1.00
C4       0.41480    0.64433    0.91425   1.00
C3       0.38219    0.70744    0.92840   1.00
C3       0.37989    0.62256    0.91981   1.00
C4       0.44914    0.70650    0.90413   1.00
C4       0.45000    0.62350    0.90733   1.00
C2       0.41439    0.76852    0.91515   1.00
C2       0.41440    0.56148    0.91518   1.00
C3       0.38186    0.74810    0.92768   1.00
C3       0.37996    0.58190    0.92059   1.00
C3       0.44787    0.74806    0.90401   1.00
C3       0.44896    0.58194    0.90808   1.00
H1       0.35633    0.69388    0.93997   1.00
H1       0.35171    0.63612    0.92272   1.00
C5       0.48357    0.68565    0.89353   1.00
C5       0.48511    0.64435    0.89930   1.00
H1       0.35617    0.76386    0.93719   1.00
H1       0.35296    0.56614    0.92521   1.00
H1       0.47274    0.76553    0.89593   1.00
H1       0.47454    0.56447    0.90263   1.00
C6       0.51776    0.70734    0.87476   1.00
C6       0.52411    0.62266    0.89845   1.00
H2       0.53249    0.68858    0.85286   1.00
H2       0.50791    0.73237    0.85696   1.00
C6       0.54650    0.72224    0.90579   1.00
H2       0.54782    0.64142    0.91004   1.00
H2       0.52448    0.59763    0.91879   1.00
C6       0.53348    0.60776    0.85720   1.00
H2       0.55784    0.69774    0.92381   1.00
C6       0.58071    0.74332    0.88658   1.00
H2       0.53131    0.74260    0.92606   1.00
C6       0.57270    0.58668    0.85672   1.00
H2       0.51018    0.58740    0.84724   1.00
H2       0.53428    0.63226    0.83593   1.00
H2       0.59678    0.72322    0.86686   1.00
H2       0.57023    0.76880    0.86948   1.00
H2       0.60122    0.75398    0.90931   1.00
H2       0.59649    0.60678    0.86576   1.00
H2       0.57218    0.56120    0.87677   1.00
H2       0.57910    0.57602    0.82679   1.00
C4       0.14433    0.41575    0.91480   1.00
C4       0.18567    0.41425    0.91520   1.00
C3       0.12256    0.42840    0.94781   1.00
C3       0.20744    0.41981    0.95011   1.00
C4       0.12350    0.40413    0.88086   1.00
C4       0.20650    0.40733    0.88000   1.00
C2       0.06148    0.41515    0.91561   1.00
C2       0.26852    0.41518    0.91560   1.00
C3       0.08190    0.42768    0.94814   1.00
C3       0.24810    0.42059    0.95004   1.00
C3       0.08194    0.40401    0.88213   1.00
C3       0.24806    0.40808    0.88104   1.00
H1       0.13612    0.43997    0.97367   1.00
H1       0.19388    0.42272    0.97829   1.00
C5       0.14435    0.39353    0.84643   1.00
C5       0.18565    0.39930    0.84489   1.00
H1       0.06614    0.43719    0.97383   1.00
H1       0.26386    0.42521    0.97704   1.00
H1       0.06447    0.39593    0.85726   1.00
H1       0.26553    0.40263    0.85546   1.00
C6       0.12266    0.37476    0.81224   1.00
C6       0.20734    0.39845    0.80589   1.00
H2       0.14142    0.35286    0.79751   1.00
H2       0.09763    0.35696    0.82209   1.00
C6       0.10776    0.40579    0.78350   1.00
H2       0.18858    0.41004    0.78218   1.00
H2       0.23237    0.41879    0.80552   1.00
C6       0.22224    0.35720    0.79652   1.00
H2       0.13226    0.42381    0.77216   1.00
C6       0.08668    0.38658    0.74929   1.00
H2       0.08740    0.42606    0.79869   1.00
C6       0.24332    0.35672    0.75730   1.00
H2       0.24260    0.34724    0.81982   1.00
H2       0.19774    0.33593    0.79572   1.00
H2       0.10678    0.36686    0.73322   1.00
H2       0.06120    0.36948    0.75977   1.00
H2       0.07602    0.40931    0.72878   1.00
H2       0.22322    0.36576    0.73351   1.00
H2       0.26880    0.37677    0.75782   1.00
H2       0.25398    0.32679    0.75090   1.00
C4       0.68567    0.41575    0.91520   1.00
C4       0.64433    0.41425    0.91480   1.00
C3       0.70744    0.42840    0.88219   1.00
C3       0.62256    0.41981    0.87989   1.00
C4       0.70650    0.40413    0.94914   1.00
C4       0.62350    0.40733    0.95000   1.00
C2       0.76852    0.41515    0.91439   1.00
C2       0.56148    0.41518    0.91440   1.00
C3       0.74810    0.42768    0.88186   1.00
C3       0.58190    0.42059    0.87996   1.00
C3       0.74806    0.40401    0.94787   1.00
C3       0.58194    0.40808    0.94896   1.00
H1       0.69388    0.43997    0.85633   1.00
H1       0.63612    0.42272    0.85171   1.00
C5       0.68565    0.39353    0.98357   1.00
C5       0.64435    0.39930    0.98511   1.00
H1       0.76386    0.43719    0.85617   1.00
H1       0.56614    0.42521    0.85296   1.00
H1       0.76553    0.39593    0.97274   1.00
H1       0.56447    0.40263    0.97454   1.00
C6       0.70734    0.37476    1.01776   1.00
C6       0.62266    0.39845    1.02411   1.00
H2       0.68858    0.35286    1.03249   1.00
H2       0.73237    0.35696    1.00791   1.00
C6       0.72224    0.40579    1.04650   1.00
H2       0.64142    0.41004    1.04782   1.00
H2       0.59763    0.41879    1.02448   1.00
C6       0.60776    0.35720    1.03348   1.00
H2       0.69774    0.42381    1.05784   1.00
C6       0.74332    0.38658    1.08071   1.00
H2       0.74260    0.42606    1.03131   1.00
C6       0.58668    0.35672    1.07270   1.00
H2       0.58740    0.34724    1.01018   1.00
H2       0.63226    0.33593    1.03428   1.00
H2       0.72322    0.36686    1.09678   1.00
H2       0.76880    0.36948    1.07023   1.00
H2       0.75398    0.40931    1.10122   1.00
H2       0.60678    0.36576    1.09649   1.00
H2       0.56120    0.37677    1.07218   1.00
H2       0.57602    0.32679    1.07910   1.00
C4       0.41480    0.14433    0.91575   1.00
C4       0.41520    0.18567    0.91425   1.00
C3       0.44781    0.12256    0.92840   1.00
C3       0.45011    0.20744    0.91981   1.00
C4       0.38086    0.12350    0.90413   1.00
C4       0.38000    0.20650    0.90733   1.00
C2       0.41561    0.06148    0.91515   1.00
C2       0.41560    0.26852    0.91518   1.00
C3       0.44814    0.08190    0.92768   1.00
C3       0.45004    0.24810    0.92059   1.00
C3       0.38213    0.08194    0.90401   1.00
C3       0.38104    0.24806    0.90808   1.00
H1       0.47367    0.13612    0.93997   1.00
H1       0.47829    0.19388    0.92272   1.00
C5       0.34643    0.14435    0.89353   1.00
C5       0.34489    0.18565    0.89930   1.00
H1       0.47383    0.06614    0.93719   1.00
H1       0.47704    0.26386    0.92521   1.00
H1       0.35726    0.06447    0.89593   1.00
H1       0.35546    0.26553    0.90263   1.00
C6       0.31224    0.12266    0.87476   1.00
C6       0.30589    0.20734    0.89845   1.00
H2       0.29751    0.14142    0.85286   1.00
H2       0.32209    0.09763    0.85696   1.00
C6       0.28350    0.10776    0.90579   1.00
H2       0.28218    0.18858    0.91004   1.00
H2       0.30552    0.23237    0.91879   1.00
C6       0.29652    0.22224    0.85720   1.00
H2       0.27216    0.13226    0.92381   1.00
C6       0.24929    0.08668    0.88658   1.00
H2       0.29869    0.08740    0.92606   1.00
C6       0.25730    0.24332    0.85672   1.00
H2       0.31982    0.24260    0.84724   1.00
H2       0.29572    0.19774    0.83593   1.00
H2       0.23322    0.10678    0.86686   1.00
H2       0.25977    0.06120    0.86948   1.00
H2       0.22878    0.07602    0.90931   1.00
H2       0.23351    0.22322    0.86576   1.00
H2       0.25782    0.26880    0.87677   1.00
H2       0.25090    0.25398    0.82679   1.00
C4       0.41575    0.41480    0.64433   1.00
C4       0.41425    0.41520    0.68567   1.00
C3       0.42840    0.44781    0.62256   1.00
C3       0.41981    0.45011    0.70744   1.00
C4       0.40413    0.38086    0.62350   1.00
C4       0.40733    0.38000    0.70650   1.00
C2       0.41515    0.41561    0.56148   1.00
C2       0.41518    0.41560    0.76852   1.00
C3       0.42768    0.44814    0.58190   1.00
C3       0.42059    0.45004    0.74810   1.00
C3       0.40401    0.38213    0.58194   1.00
C3       0.40808    0.38104    0.74806   1.00
H1       0.43997    0.47367    0.63612   1.00
H1       0.42272    0.47829    0.69388   1.00
C5       0.39353    0.34643    0.64435   1.00
C5       0.39930    0.34489    0.68565   1.00
H1       0.43719    0.47383    0.56614   1.00
H1       0.42521    0.47704    0.76386   1.00
H1       0.39593    0.35726    0.56447   1.00
H1       0.40263    0.35546    0.76553   1.00
C6       0.37476    0.31224    0.62266   1.00
C6       0.39845    0.30589    0.70734   1.00
H2       0.35286    0.29751    0.64142   1.00
H2       0.35696    0.32209    0.59763   1.00
C6       0.40579    0.28350    0.60776   1.00
H2       0.41004    0.28218    0.68858   1.00
H2       0.41879    0.30552    0.73237   1.00
C6       0.35720    0.29652    0.72224   1.00
H2       0.42381    0.27216    0.63226   1.00
C6       0.38658    0.24929    0.58668   1.00
H2       0.42606    0.29869    0.58740   1.00
C6       0.35672    0.25730    0.74332   1.00
H2       0.34724    0.31982    0.74260   1.00
H2       0.33593    0.29572    0.69774   1.00
H2       0.36686    0.23322    0.60678   1.00
H2       0.36948    0.25977    0.56120   1.00
H2       0.40931    0.22878    0.57602   1.00
H2       0.36576    0.23351    0.72322   1.00
H2       0.37677    0.25782    0.76880   1.00
H2       0.32679    0.25090    0.75398   1.00
C4       0.41575    0.91520    0.68567   1.00
C4       0.41425    0.91480    0.64433   1.00
C3       0.42840    0.88219    0.70744   1.00
C3       0.41981    0.87989    0.62256   1.00
C4       0.40413    0.94914    0.70650   1.00
C4       0.40733    0.95000    0.62350   1.00
C2       0.41515    0.91439    0.76852   1.00
C2       0.41518    0.91440    0.56148   1.00
C3       0.42768    0.88186    0.74810   1.00
C3       0.42059    0.87996    0.58190   1.00
C3       0.40401    0.94787    0.74806   1.00
C3       0.40808    0.94896    0.58194   1.00
H1       0.43997    0.85633    0.69388   1.00
H1       0.42272    0.85171    0.63612   1.00
C5       0.39353    0.98357    0.68565   1.00
C5       0.39930    0.98511    0.64435   1.00
H1       0.43719    0.85617    0.76386   1.00
H1       0.42521    0.85296    0.56614   1.00
H1       0.39593    0.97274    0.76553   1.00
H1       0.40263    0.97454    0.56447   1.00
C6       0.37476    1.01776    0.70734   1.00
C6       0.39845    1.02411    0.62266   1.00
H2       0.35286    1.03249    0.68858   1.00
H2       0.35696    1.00791    0.73237   1.00
C6       0.40579    1.04650    0.72224   1.00
H2       0.41004    1.04782    0.64142   1.00
H2       0.41879    1.02448    0.59763   1.00
C6       0.35720    1.03348    0.60776   1.00
H2       0.42381    1.05784    0.69774   1.00
C6       0.38658    1.08071    0.74332   1.00
H2       0.42606    1.03131    0.74260   1.00
C6       0.35672    1.07270    0.58668   1.00
H2       0.34724    1.01018    0.58740   1.00
H2       0.33593    1.03428    0.63226   1.00
H2       0.36686    1.09678    0.72322   1.00
H2       0.36948    1.07023    0.76880   1.00
H2       0.40931    1.10122    0.75398   1.00
H2       0.36576    1.09649    0.60678   1.00
H2       0.37677    1.07218    0.56120   1.00
H2       0.32679    1.07910    0.57602   1.00
C4       0.41520    1.18567    0.41575   1.00
C4       0.41480    1.14433    0.41425   1.00
C3       0.38219    1.20744    0.42840   1.00
C3       0.37989    1.12256    0.41981   1.00
C4       0.44914    1.20650    0.40413   1.00
C4       0.45000    1.12350    0.40733   1.00
C2       0.41439    1.26852    0.41515   1.00
C2       0.41440    1.06148    0.41518   1.00
C3       0.38186    1.24810    0.42768   1.00
C3       0.37996    1.08190    0.42059   1.00
C3       0.44787    1.24806    0.40401   1.00
C3       0.44896    1.08194    0.40808   1.00
H1       0.35633    1.19388    0.43997   1.00
H1       0.35171    1.13612    0.42272   1.00
C5       0.48357    1.18565    0.39353   1.00
C5       0.48511    1.14435    0.39930   1.00
H1       0.35617    1.26386    0.43719   1.00
H1       0.35296    1.06614    0.42521   1.00
H1       0.47274    1.26553    0.39593   1.00
H1       0.47454    1.06447    0.40263   1.00
C6       0.51776    1.20734    0.37476   1.00
C6       0.52411    1.12266    0.39845   1.00
H2       0.53249    1.18858    0.35286   1.00
H2       0.50791    1.23237    0.35696   1.00
C6       0.54650    1.22224    0.40579   1.00
H2       0.54782    1.14142    0.41004   1.00
H2       0.52448    1.09763    0.41879   1.00
C6       0.53348    1.10776    0.35720   1.00
H2       0.55784    1.19774    0.42381   1.00
C6       0.58071    1.24332    0.38658   1.00
H2       0.53131    1.24260    0.42606   1.00
C6       0.57270    1.08668    0.35672   1.00
H2       0.51018    1.08740    0.34724   1.00
H2       0.53428    1.13226    0.33593   1.00
H2       0.59678    1.22322    0.36686   1.00
H2       0.57023    1.26880    0.36948   1.00
H2       0.60122    1.25398    0.40931   1.00
H2       0.59649    1.10678    0.36576   1.00
H2       0.57218    1.06120    0.37677   1.00
H2       0.57910    1.07602    0.32679   1.00
C4       0.14433    0.91575    0.41480   1.00
C4       0.18567    0.91425    0.41520   1.00
C3       0.12256    0.92840    0.44781   1.00
C3       0.20744    0.91981    0.45011   1.00
C4       0.12350    0.90413    0.38086   1.00
C4       0.20650    0.90733    0.38000   1.00
C2       0.06148    0.91515    0.41561   1.00
C2       0.26852    0.91518    0.41560   1.00
C3       0.08190    0.92768    0.44814   1.00
C3       0.24810    0.92059    0.45004   1.00
C3       0.08194    0.90401    0.38213   1.00
C3       0.24806    0.90808    0.38104   1.00
H1       0.13612    0.93997    0.47367   1.00
H1       0.19388    0.92272    0.47829   1.00
C5       0.14435    0.89353    0.34643   1.00
C5       0.18565    0.89930    0.34489   1.00
H1       0.06614    0.93719    0.47383   1.00
H1       0.26386    0.92521    0.47704   1.00
H1       0.06447    0.89593    0.35726   1.00
H1       0.26553    0.90263    0.35546   1.00
C6       0.12266    0.87476    0.31224   1.00
C6       0.20734    0.89845    0.30589   1.00
H2       0.14142    0.85286    0.29751   1.00
H2       0.09763    0.85696    0.32209   1.00
C6       0.10776    0.90579    0.28350   1.00
H2       0.18858    0.91004    0.28218   1.00
H2       0.23237    0.91879    0.30552   1.00
C6       0.22224    0.85720    0.29652   1.00
H2       0.13226    0.92381    0.27216   1.00
C6       0.08668    0.88658    0.24929   1.00
H2       0.08740    0.92606    0.29869   1.00
C6       0.24332    0.85672    0.25730   1.00
H2       0.24260    0.84724    0.31982   1.00
H2       0.19774    0.83593    0.29572   1.00
H2       0.10678    0.86686    0.23322   1.00
H2       0.06120    0.86948    0.25977   1.00
H2       0.07602    0.90931    0.22878   1.00
H2       0.22322    0.86576    0.23351   1.00
H2       0.26880    0.87677    0.25782   1.00
H2       0.25398    0.82679    0.25090   1.00
C4       0.68567    0.91575    0.41520   1.00
C4       0.64433    0.91425    0.41480   1.00
C3       0.70744    0.92840    0.38219   1.00
C3       0.62256    0.91981    0.37989   1.00
C4       0.70650    0.90413    0.44914   1.00
C4       0.62350    0.90733    0.45000   1.00
C2       0.76852    0.91515    0.41439   1.00
C2       0.56148    0.91518    0.41440   1.00
C3       0.74810    0.92768    0.38186   1.00
C3       0.58190    0.92059    0.37996   1.00
C3       0.74806    0.90401    0.44787   1.00
C3       0.58194    0.90808    0.44896   1.00
H1       0.69388    0.93997    0.35633   1.00
H1       0.63612    0.92272    0.35171   1.00
C5       0.68565    0.89353    0.48357   1.00
C5       0.64435    0.89930    0.48511   1.00
H1       0.76386    0.93719    0.35617   1.00
H1       0.56614    0.92521    0.35296   1.00
H1       0.76553    0.89593    0.47274   1.00
H1       0.56447    0.90263    0.47454   1.00
C6       0.70734    0.87476    0.51776   1.00
C6       0.62266    0.89845    0.52411   1.00
H2       0.68858    0.85286    0.53249   1.00
H2       0.73237    0.85696    0.50791   1.00
C6       0.72224    0.90579    0.54650   1.00
H2       0.64142    0.91004    0.54782   1.00
H2       0.59763    0.91879    0.52448   1.00
C6       0.60776    0.85720    0.53348   1.00
H2       0.69774    0.92381    0.55784   1.00
C6       0.74332    0.88658    0.58071   1.00
H2       0.74260    0.92606    0.53131   1.00
C6       0.58668    0.85672    0.57270   1.00
H2       0.58740    0.84724    0.51018   1.00
H2       0.63226    0.83593    0.53428   1.00
H2       0.72322    0.86686    0.59678   1.00
H2       0.76880    0.86948    0.57023   1.00
H2       0.75398    0.90931    0.60122   1.00
H2       0.60678    0.86576    0.59649   1.00
H2       0.56120    0.87677    0.57218   1.00
H2       0.57602    0.82679    0.57910   1.00
C4       0.41480    0.64433    0.41575   1.00
C4       0.41520    0.68567    0.41425   1.00
C3       0.44781    0.62256    0.42840   1.00
C3       0.45011    0.70744    0.41981   1.00
C4       0.38086    0.62350    0.40413   1.00
C4       0.38000    0.70650    0.40733   1.00
C2       0.41561    0.56148    0.41515   1.00
C2       0.41560    0.76852    0.41518   1.00
C3       0.44814    0.58190    0.42768   1.00
C3       0.45004    0.74810    0.42059   1.00
C3       0.38213    0.58194    0.40401   1.00
C3       0.38104    0.74806    0.40808   1.00
H1       0.47367    0.63612    0.43997   1.00
H1       0.47829    0.69388    0.42272   1.00
C5       0.34643    0.64435    0.39353   1.00
C5       0.34489    0.68565    0.39930   1.00
H1       0.47383    0.56614    0.43719   1.00
H1       0.47704    0.76386    0.42521   1.00
H1       0.35726    0.56447    0.39593   1.00
H1       0.35546    0.76553    0.40263   1.00
C6       0.31224    0.62266    0.37476   1.00
C6       0.30589    0.70734    0.39845   1.00
H2       0.29751    0.64142    0.35286   1.00
H2       0.32209    0.59763    0.35696   1.00
C6       0.28350    0.60776    0.40579   1.00
H2       0.28218    0.68858    0.41004   1.00
H2       0.30552    0.73237    0.41879   1.00
C6       0.29652    0.72224    0.35720   1.00
H2       0.27216    0.63226    0.42381   1.00
C6       0.24929    0.58668    0.38658   1.00
H2       0.29869    0.58740    0.42606   1.00
C6       0.25730    0.74332    0.35672   1.00
H2       0.31982    0.74260    0.34724   1.00
H2       0.29572    0.69774    0.33593   1.00
H2       0.23322    0.60678    0.36686   1.00
H2       0.25977    0.56120    0.36948   1.00
H2       0.22878    0.57602    0.40931   1.00
H2       0.23351    0.72322    0.36576   1.00
H2       0.25782    0.76880    0.37677   1.00
H2       0.25090    0.75398    0.32679   1.00
C4       0.41575    0.91480    0.14433   1.00
C4       0.41425    0.91520    0.18567   1.00
C3       0.42840    0.94781    0.12256   1.00
C3       0.41981    0.95011    0.20744   1.00
C4       0.40413    0.88086    0.12350   1.00
C4       0.40733    0.88000    0.20650   1.00
C2       0.41515    0.91561    0.06148   1.00
C2       0.41518    0.91560    0.26852   1.00
C3       0.42768    0.94814    0.08190   1.00
C3       0.42059    0.95004    0.24810   1.00
C3       0.40401    0.88213    0.08194   1.00
C3       0.40808    0.88104    0.24806   1.00
H1       0.43997    0.97367    0.13612   1.00
H1       0.42272    0.97829    0.19388   1.00
C5       0.39353    0.84643    0.14435   1.00
C5       0.39930    0.84489    0.18565   1.00
H1       0.43719    0.97383    0.06614   1.00
H1       0.42521    0.97704    0.26386   1.00
H1       0.39593    0.85726    0.06447   1.00
H1       0.40263    0.85546    0.26553   1.00
C6       0.37476    0.81224    0.12266   1.00
C6       0.39845    0.80589    0.20734   1.00
H2       0.35286    0.79751    0.14142   1.00
H2       0.35696    0.82209    0.09763   1.00
C6       0.40579    0.78350    0.10776   1.00
H2       0.41004    0.78218    0.18858   1.00
H2       0.41879    0.80552    0.23237   1.00
C6       0.35720    0.79652    0.22224   1.00
H2       0.42381    0.77216    0.13226   1.00
C6       0.38658    0.74929    0.08668   1.00
H2       0.42606    0.79869    0.08740   1.00
C6       0.35672    0.75730    0.24332   1.00
H2       0.34724    0.81982    0.24260   1.00
H2       0.33593    0.79572    0.19774   1.00
H2       0.36686    0.73322    0.10678   1.00
H2       0.36948    0.75977    0.06120   1.00
H2       0.40931    0.72878    0.07602   1.00
H2       0.36576    0.73351    0.22322   1.00
H2       0.37677    0.75782    0.26880   1.00
H2       0.32679    0.75090    0.25398   1.00
C4       0.91575    0.41520    0.68567   1.00
C4       0.91425    0.41480    0.64433   1.00
C3       0.92840    0.38219    0.70744   1.00
C3       0.91981    0.37989    0.62256   1.00
C4       0.90413    0.44914    0.70650   1.00
C4       0.90733    0.45000    0.62350   1.00
C2       0.91515    0.41439    0.76852   1.00
C2       0.91518    0.41440    0.56148   1.00
C3       0.92768    0.38186    0.74810   1.00
C3       0.92059    0.37996    0.58190   1.00
C3       0.90401    0.44787    0.74806   1.00
C3       0.90808    0.44896    0.58194   1.00
H1       0.93997    0.35633    0.69388   1.00
H1       0.92272    0.35171    0.63612   1.00
C5       0.89353    0.48357    0.68565   1.00
C5       0.89930    0.48511    0.64435   1.00
H1       0.93719    0.35617    0.76386   1.00
H1       0.92521    0.35296    0.56614   1.00
H1       0.89593    0.47274    0.76553   1.00
H1       0.90263    0.47454    0.56447   1.00
C6       0.87476    0.51776    0.70734   1.00
C6       0.89845    0.52411    0.62266   1.00
H2       0.85286    0.53249    0.68858   1.00
H2       0.85696    0.50791    0.73237   1.00
C6       0.90579    0.54650    0.72224   1.00
H2       0.91004    0.54782    0.64142   1.00
H2       0.91879    0.52448    0.59763   1.00
C6       0.85720    0.53348    0.60776   1.00
H2       0.92381    0.55784    0.69774   1.00
C6       0.88658    0.58071    0.74332   1.00
H2       0.92606    0.53131    0.74260   1.00
C6       0.85672    0.57270    0.58668   1.00
H2       0.84724    0.51018    0.58740   1.00
H2       0.83593    0.53428    0.63226   1.00
H2       0.86686    0.59678    0.72322   1.00
H2       0.86948    0.57023    0.76880   1.00
H2       0.90931    0.60122    0.75398   1.00
H2       0.86576    0.59649    0.60678   1.00
H2       0.87677    0.57218    0.56120   1.00
H2       0.82679    0.57910    0.57602   1.00
C4       0.91520    0.68567    0.41575   1.00
C4       0.91480    0.64433    0.41425   1.00
C3       0.88219    0.70744    0.42840   1.00
C3       0.87989    0.62256    0.41981   1.00
C4       0.94914    0.70650    0.40413   1.00
C4       0.95000    0.62350    0.40733   1.00
C2       0.91439    0.76852    0.41515   1.00
C2       0.91440    0.56148    0.41518   1.00
C3       0.88186    0.74810    0.42768   1.00
C3       0.87996    0.58190    0.42059   1.00
C3       0.94787    0.74806    0.40401   1.00
C3       0.94896    0.58194    0.40808   1.00
H1       0.85633    0.69388    0.43997   1.00
H1       0.85171    0.63612    0.42272   1.00
C5       0.98357    0.68565    0.39353   1.00
C5       0.98511    0.64435    0.39930   1.00
H1       0.85617    0.76386    0.43719   1.00
H1       0.85296    0.56614    0.42521   1.00
H1       0.97274    0.76553    0.39593   1.00
H1       0.97454    0.56447    0.40263   1.00
C6       1.01776    0.70734    0.37476   1.00
C6       1.02411    0.62266    0.39845   1.00
H2       1.03249    0.68858    0.35286   1.00
H2       1.00791    0.73237    0.35696   1.00
C6       1.04650    0.72224    0.40579   1.00
H2       1.04782    0.64142    0.41004   1.00
H2       1.02448    0.59763    0.41879   1.00
C6       1.03348    0.60776    0.35720   1.00
H2       1.05784    0.69774    0.42381   1.00
C6       1.08071    0.74332    0.38658   1.00
H2       1.03131    0.74260    0.42606   1.00
C6       1.07270    0.58668    0.35672   1.00
H2       1.01018    0.58740    0.34724   1.00
H2       1.03428    0.63226    0.33593   1.00
H2       1.09678    0.72322    0.36686   1.00
H2       1.07023    0.76880    0.36948   1.00
H2       1.10122    0.75398    0.40931   1.00
H2       1.09649    0.60678    0.36576   1.00
H2       1.07218    0.56120    0.37677   1.00
H2       1.07910    0.57602    0.32679   1.00
C4       0.64433    0.41575    0.41480   1.00
C4       0.68567    0.41425    0.41520   1.00
C3       0.62256    0.42840    0.44781   1.00
C3       0.70744    0.41981    0.45011   1.00
C4       0.62350    0.40413    0.38086   1.00
C4       0.70650    0.40733    0.38000   1.00
C2       0.56148    0.41515    0.41561   1.00
C2       0.76852    0.41518    0.41560   1.00
C3       0.58190    0.42768    0.44814   1.00
C3       0.74810    0.42059    0.45004   1.00
C3       0.58194    0.40401    0.38213   1.00
C3       0.74806    0.40808    0.38104   1.00
H1       0.63612    0.43997    0.47367   1.00
H1       0.69388    0.42272    0.47829   1.00
C5       0.64435    0.39353    0.34643   1.00
C5       0.68565    0.39930    0.34489   1.00
H1       0.56614    0.43719    0.47383   1.00
H1       0.76386    0.42521    0.47704   1.00
H1       0.56447    0.39593    0.35726   1.00
H1       0.76553    0.40263    0.35546   1.00
C6       0.62266    0.37476    0.31224   1.00
C6       0.70734    0.39845    0.30589   1.00
H2       0.64142    0.35286    0.29751   1.00
H2       0.59763    0.35696    0.32209   1.00
C6       0.60776    0.40579    0.28350   1.00
H2       0.68858    0.41004    0.28218   1.00
H2       0.73237    0.41879    0.30552   1.00
C6       0.72224    0.35720    0.29652   1.00
H2       0.63226    0.42381    0.27216   1.00
C6       0.58668    0.38658    0.24929   1.00
H2       0.58740    0.42606    0.29869   1.00
C6       0.74332    0.35672    0.25730   1.00
H2       0.74260    0.34724    0.31982   1.00
H2       0.69774    0.33593    0.29572   1.00
H2       0.60678    0.36686    0.23322   1.00
H2       0.56120    0.36948    0.25977   1.00
H2       0.57602    0.40931    0.22878   1.00
H2       0.72322    0.36576    0.23351   1.00
H2       0.76880    0.37677    0.25782   1.00
H2       0.75398    0.32679    0.25090   1.00
C4       1.18567    0.41575    0.41520   1.00
C4       1.14433    0.41425    0.41480   1.00
C3       1.20744    0.42840    0.38219   1.00
C3       1.12256    0.41981    0.37989   1.00
C4       1.20650    0.40413    0.44914   1.00
C4       1.12350    0.40733    0.45000   1.00
C2       1.26852    0.41515    0.41439   1.00
C2       1.06148    0.41518    0.41440   1.00
C3       1.24810    0.42768    0.38186   1.00
C3       1.08190    0.42059    0.37996   1.00
C3       1.24806    0.40401    0.44787   1.00
C3       1.08194    0.40808    0.44896   1.00
H1       1.19388    0.43997    0.35633   1.00
H1       1.13612    0.42272    0.35171   1.00
C5       1.18565    0.39353    0.48357   1.00
C5       1.14435    0.39930    0.48511   1.00
H1       1.26386    0.43719    0.35617   1.00
H1       1.06614    0.42521    0.35296   1.00
H1       1.26553    0.39593    0.47274   1.00
H1       1.06447    0.40263    0.47454   1.00
C6       1.20734    0.37476    0.51776   1.00
C6       1.12266    0.39845    0.52411   1.00
H2       1.18858    0.35286    0.53249   1.00
H2       1.23237    0.35696    0.50791   1.00
C6       1.22224    0.40579    0.54650   1.00
H2       1.14142    0.41004    0.54782   1.00
H2       1.09763    0.41879    0.52448   1.00
C6       1.10776    0.35720    0.53348   1.00
H2       1.19774    0.42381    0.55784   1.00
C6       1.24332    0.38658    0.58071   1.00
H2       1.24260    0.42606    0.53131   1.00
C6       1.08668    0.35672    0.57270   1.00
H2       1.08740    0.34724    0.51018   1.00
H2       1.13226    0.33593    0.53428   1.00
H2       1.22322    0.36686    0.59678   1.00
H2       1.26880    0.36948    0.57023   1.00
H2       1.25398    0.40931    0.60122   1.00
H2       1.10678    0.36576    0.59649   1.00
H2       1.06120    0.37677    0.57218   1.00
H2       1.07602    0.32679    0.57910   1.00
C4       0.91480    0.14433    0.41575   1.00
C4       0.91520    0.18567    0.41425   1.00
C3       0.94781    0.12256    0.42840   1.00
C3       0.95011    0.20744    0.41981   1.00
C4       0.88086    0.12350    0.40413   1.00
C4       0.88000    0.20650    0.40733   1.00
C2       0.91561    0.06148    0.41515   1.00
C2       0.91560    0.26852    0.41518   1.00
C3       0.94814    0.08190    0.42768   1.00
C3       0.95004    0.24810    0.42059   1.00
C3       0.88213    0.08194    0.40401   1.00
C3       0.88104    0.24806    0.40808   1.00
H1       0.97367    0.13612    0.43997   1.00
H1       0.97829    0.19388    0.42272   1.00
C5       0.84643    0.14435    0.39353   1.00
C5       0.84489    0.18565    0.39930   1.00
H1       0.97383    0.06614    0.43719   1.00
H1       0.97704    0.26386    0.42521   1.00
H1       0.85726    0.06447    0.39593   1.00
H1       0.85546    0.26553    0.40263   1.00
C6       0.81224    0.12266    0.37476   1.00
C6       0.80589    0.20734    0.39845   1.00
H2       0.79751    0.14142    0.35286   1.00
H2       0.82209    0.09763    0.35696   1.00
C6       0.78350    0.10776    0.40579   1.00
H2       0.78218    0.18858    0.41004   1.00
H2       0.80552    0.23237    0.41879   1.00
C6       0.79652    0.22224    0.35720   1.00
H2       0.77216    0.13226    0.42381   1.00
C6       0.74929    0.08668    0.38658   1.00
H2       0.79869    0.08740    0.42606   1.00
C6       0.75730    0.24332    0.35672   1.00
H2       0.81982    0.24260    0.34724   1.00
H2       0.79572    0.19774    0.33593   1.00
H2       0.73322    0.10678    0.36686   1.00
H2       0.75977    0.06120    0.36948   1.00
H2       0.72878    0.07602    0.40931   1.00
H2       0.73351    0.22322    0.36576   1.00
H2       0.75782    0.26880    0.37677   1.00
H2       0.75090    0.25398    0.32679   1.00
C4       0.91575    0.41480    0.14433   1.00
C4       0.91425    0.41520    0.18567   1.00
C3       0.92840    0.44781    0.12256   1.00
C3       0.91981    0.45011    0.20744   1.00
C4       0.90413    0.38086    0.12350   1.00
C4       0.90733    0.38000    0.20650   1.00
C2       0.91515    0.41561    0.06148   1.00
C2       0.91518    0.41560    0.26852   1.00
C3       0.92768    0.44814    0.08190   1.00
C3       0.92059    0.45004    0.24810   1.00
C3       0.90401    0.38213    0.08194   1.00
C3       0.90808    0.38104    0.24806   1.00
H1       0.93997    0.47367    0.13612   1.00
H1       0.92272    0.47829    0.19388   1.00
C5       0.89353    0.34643    0.14435   1.00
C5       0.89930    0.34489    0.18565   1.00
H1       0.93719    0.47383    0.06614   1.00
H1       0.92521    0.47704    0.26386   1.00
H1       0.89593    0.35726    0.06447   1.00
H1       0.90263    0.35546    0.26553   1.00
C6       0.87476    0.31224    0.12266   1.00
C6       0.89845    0.30589    0.20734   1.00
H2       0.85286    0.29751    0.14142   1.00
H2       0.85696    0.32209    0.09763   1.00
C6       0.90579    0.28350    0.10776   1.00
H2       0.91004    0.28218    0.18858   1.00
H2       0.91879    0.30552    0.23237   1.00
C6       0.85720    0.29652    0.22224   1.00
H2       0.92381    0.27216    0.13226   1.00
C6       0.88658    0.24929    0.08668   1.00
H2       0.92606    0.29869    0.08740   1.00
C6       0.85672    0.25730    0.24332   1.00
H2       0.84724    0.31982    0.24260   1.00
H2       0.83593    0.29572    0.19774   1.00
H2       0.86686    0.23322    0.10678   1.00
H2       0.86948    0.25977    0.06120   1.00
H2       0.90931    0.22878    0.07602   1.00
H2       0.86576    0.23351    0.22322   1.00
H2       0.87677    0.25782    0.26880   1.00
H2       0.82679    0.25090    0.25398   1.00
