data_IRMOF10_SG202_interpen_Ligand4cp_label_k.

_audit_creation_method             'generated by an auxiliary program of Tobunporous'

_symmetry_space_group_name_H-M     'P 1'
_symmetry_Int_Tables_number        1
_symmetry_cell_setting             triclinic

_cell_length_a                    34.2800
_cell_length_b                    34.2800
_cell_length_c                    34.2800
_cell_angle_alpha                 90.0000
_cell_angle_beta                  90.0000
_cell_angle_gamma                 90.0000

loop_
_atom_site_label
_atom_site_fract_x
_atom_site_fract_y
_atom_site_fract_z
_atom_site_occupancy
O1       0.75000    0.75000    0.75000   1.00
Zn1      0.71720    0.78280    0.78280   1.00
Zn1      0.78280    0.71720    0.78280   1.00
Zn1      0.78280    0.78280    0.71720   1.00
Zn1      0.71720    0.71720    0.71720   1.00
O2       0.72650    0.77350    0.83820   1.00
O2       0.72650    0.83820    0.77350   1.00
O2       0.66180    0.77350    0.77350   1.00
O2       0.77350    0.72650    0.83820   1.00
O2       0.83820    0.72650    0.77350   1.00
O2       0.77350    0.66180    0.77350   1.00
O2       0.77350    0.83820    0.72650   1.00
O2       0.83820    0.77350    0.72650   1.00
O2       0.77350    0.77350    0.66180   1.00
O2       0.66180    0.72650    0.72650   1.00
O2       0.72650    0.66180    0.72650   1.00
O2       0.72650    0.72650    0.66180   1.00
C1       0.75000    0.75000    0.85520   1.00
C1       0.75000    0.85520    0.75000   1.00
C1       0.64480    0.75000    0.75000   1.00
C1       0.85520    0.75000    0.75000   1.00
C1       0.75000    0.64480    0.75000   1.00
C1       0.75000    0.75000    0.64480   1.00
O1       0.25000    0.25000    0.75000   1.00
Zn1      0.21720    0.28280    0.78280   1.00
Zn1      0.28280    0.21720    0.78280   1.00
Zn1      0.28280    0.28280    0.71720   1.00
Zn1      0.21720    0.21720    0.71720   1.00
O2       0.22650    0.27350    0.83820   1.00
O2       0.22650    0.33820    0.77350   1.00
O2       0.16180    0.27350    0.77350   1.00
O2       0.27350    0.22650    0.83820   1.00
O2       0.33820    0.22650    0.77350   1.00
O2       0.27350    0.16180    0.77350   1.00
O2       0.27350    0.33820    0.72650   1.00
O2       0.33820    0.27350    0.72650   1.00
O2       0.27350    0.27350    0.66180   1.00
O2       0.16180    0.22650    0.72650   1.00
O2       0.22650    0.16180    0.72650   1.00
O2       0.22650    0.22650    0.66180   1.00
C1       0.25000    0.25000    0.85520   1.00
C1       0.25000    0.35520    0.75000   1.00
C1       0.14480    0.25000    0.75000   1.00
C1       0.35520    0.25000    0.75000   1.00
C1       0.25000    0.14480    0.75000   1.00
C1       0.25000    0.25000    0.64480   1.00
O1       0.25000    0.75000    0.25000   1.00
Zn1      0.21720    0.78280    0.28280   1.00
Zn1      0.28280    0.71720    0.28280   1.00
Zn1      0.28280    0.78280    0.21720   1.00
Zn1      0.21720    0.71720    0.21720   1.00
O2       0.22650    0.77350    0.33820   1.00
O2       0.22650    0.83820    0.27350   1.00
O2       0.16180    0.77350    0.27350   1.00
O2       0.27350    0.72650    0.33820   1.00
O2       0.33820    0.72650    0.27350   1.00
O2       0.27350    0.66180    0.27350   1.00
O2       0.27350    0.83820    0.22650   1.00
O2       0.33820    0.77350    0.22650   1.00
O2       0.27350    0.77350    0.16180   1.00
O2       0.16180    0.72650    0.22650   1.00
O2       0.22650    0.66180    0.22650   1.00
O2       0.22650    0.72650    0.16180   1.00
C1       0.25000    0.75000    0.35520   1.00
C1       0.25000    0.85520    0.25000   1.00
C1       0.14480    0.75000    0.25000   1.00
C1       0.35520    0.75000    0.25000   1.00
C1       0.25000    0.64480    0.25000   1.00
C1       0.25000    0.75000    0.14480   1.00
O1       0.75000    0.25000    0.25000   1.00
Zn1      0.71720    0.28280    0.28280   1.00
Zn1      0.78280    0.21720    0.28280   1.00
Zn1      0.78280    0.28280    0.21720   1.00
Zn1      0.71720    0.21720    0.21720   1.00
O2       0.72650    0.27350    0.33820   1.00
O2       0.72650    0.33820    0.27350   1.00
O2       0.66180    0.27350    0.27350   1.00
O2       0.77350    0.22650    0.33820   1.00
O2       0.83820    0.22650    0.27350   1.00
O2       0.77350    0.16180    0.27350   1.00
O2       0.77350    0.33820    0.22650   1.00
O2       0.83820    0.27350    0.22650   1.00
O2       0.77350    0.27350    0.16180   1.00
O2       0.66180    0.22650    0.22650   1.00
O2       0.72650    0.16180    0.22650   1.00
O2       0.72650    0.22650    0.16180   1.00
C1       0.75000    0.25000    0.35520   1.00
C1       0.75000    0.35520    0.25000   1.00
C1       0.64480    0.25000    0.25000   1.00
C1       0.85520    0.25000    0.25000   1.00
C1       0.75000    0.14480    0.25000   1.00
C1       0.75000    0.25000    0.14480   1.00
O1       0.25000    0.25000    0.25000   1.00
Zn1      0.28280    0.21720    0.21720   1.00
Zn1      0.21720    0.28280    0.21720   1.00
Zn1      0.21720    0.21720    0.28280   1.00
Zn1      0.28280    0.28280    0.28280   1.00
O2       0.27350    0.22650    0.16180   1.00
O2       0.27350    0.16180    0.22650   1.00
O2       0.33820    0.22650    0.22650   1.00
O2       0.22650    0.27350    0.16180   1.00
O2       0.16180    0.27350    0.22650   1.00
O2       0.22650    0.33820    0.22650   1.00
O2       0.22650    0.16180    0.27350   1.00
O2       0.16180    0.22650    0.27350   1.00
O2       0.22650    0.22650    0.33820   1.00
O2       0.33820    0.27350    0.27350   1.00
O2       0.27350    0.33820    0.27350   1.00
O2       0.27350    0.27350    0.33820   1.00
C1       0.25000    0.25000    0.14480   1.00
C1       0.25000    0.14480    0.25000   1.00
C1       0.35520    0.25000    0.25000   1.00
C1       0.14480    0.25000    0.25000   1.00
C1       0.25000    0.35520    0.25000   1.00
C1       0.25000    0.25000    0.35520   1.00
O1       0.75000    0.75000    0.25000   1.00
Zn1      0.78280    0.71720    0.21720   1.00
Zn1      0.71720    0.78280    0.21720   1.00
Zn1      0.71720    0.71720    0.28280   1.00
Zn1      0.78280    0.78280    0.28280   1.00
O2       0.77350    0.72650    0.16180   1.00
O2       0.77350    0.66180    0.22650   1.00
O2       0.83820    0.72650    0.22650   1.00
O2       0.72650    0.77350    0.16180   1.00
O2       0.66180    0.77350    0.22650   1.00
O2       0.72650    0.83820    0.22650   1.00
O2       0.72650    0.66180    0.27350   1.00
O2       0.66180    0.72650    0.27350   1.00
O2       0.72650    0.72650    0.33820   1.00
O2       0.83820    0.77350    0.27350   1.00
O2       0.77350    0.83820    0.27350   1.00
O2       0.77350    0.77350    0.33820   1.00
C1       0.75000    0.75000    0.14480   1.00
C1       0.75000    0.64480    0.25000   1.00
C1       0.85520    0.75000    0.25000   1.00
C1       0.64480    0.75000    0.25000   1.00
C1       0.75000    0.85520    0.25000   1.00
C1       0.75000    0.75000    0.35520   1.00
O1       0.75000    0.25000    0.75000   1.00
Zn1      0.78280    0.21720    0.71720   1.00
Zn1      0.71720    0.28280    0.71720   1.00
Zn1      0.71720    0.21720    0.78280   1.00
Zn1      0.78280    0.28280    0.78280   1.00
O2       0.77350    0.22650    0.66180   1.00
O2       0.77350    0.16180    0.72650   1.00
O2       0.83820    0.22650    0.72650   1.00
O2       0.72650    0.27350    0.66180   1.00
O2       0.66180    0.27350    0.72650   1.00
O2       0.72650    0.33820    0.72650   1.00
O2       0.72650    0.16180    0.77350   1.00
O2       0.66180    0.22650    0.77350   1.00
O2       0.72650    0.22650    0.83820   1.00
O2       0.83820    0.27350    0.77350   1.00
O2       0.77350    0.33820    0.77350   1.00
O2       0.77350    0.27350    0.83820   1.00
C1       0.75000    0.25000    0.64480   1.00
C1       0.75000    0.14480    0.75000   1.00
C1       0.85520    0.25000    0.75000   1.00
C1       0.64480    0.25000    0.75000   1.00
C1       0.75000    0.35520    0.75000   1.00
C1       0.75000    0.25000    0.85520   1.00
O1       0.25000    0.75000    0.75000   1.00
Zn1      0.28280    0.71720    0.71720   1.00
Zn1      0.21720    0.78280    0.71720   1.00
Zn1      0.21720    0.71720    0.78280   1.00
Zn1      0.28280    0.78280    0.78280   1.00
O2       0.27350    0.72650    0.66180   1.00
O2       0.27350    0.66180    0.72650   1.00
O2       0.33820    0.72650    0.72650   1.00
O2       0.22650    0.77350    0.66180   1.00
O2       0.16180    0.77350    0.72650   1.00
O2       0.22650    0.83820    0.72650   1.00
O2       0.22650    0.66180    0.77350   1.00
O2       0.16180    0.72650    0.77350   1.00
O2       0.22650    0.72650    0.83820   1.00
O2       0.33820    0.77350    0.77350   1.00
O2       0.27350    0.83820    0.77350   1.00
O2       0.27350    0.77350    0.83820   1.00
C1       0.25000    0.75000    0.64480   1.00
C1       0.25000    0.64480    0.75000   1.00
C1       0.35520    0.75000    0.75000   1.00
C1       0.14480    0.75000    0.75000   1.00
C1       0.25000    0.85520    0.75000   1.00
C1       0.25000    0.75000    0.85520   1.00
O1       0.91500    0.91500    0.91500   1.00
Zn1      0.88220    0.94780    0.94780   1.00
Zn1      0.94780    0.88220    0.94780   1.00
Zn1      0.94780    0.94780    0.88220   1.00
Zn1      0.88220    0.88220    0.88220   1.00
O2       0.89150    0.93850    1.00320   1.00
O2       0.89150    1.00320    0.93850   1.00
O2       0.82680    0.93850    0.93850   1.00
O2       0.93850    0.89150    1.00320   1.00
O2       1.00320    0.89150    0.93850   1.00
O2       0.93850    0.82680    0.93850   1.00
O2       0.93850    1.00320    0.89150   1.00
O2       1.00320    0.93850    0.89150   1.00
O2       0.93850    0.93850    0.82680   1.00
O2       0.82680    0.89150    0.89150   1.00
O2       0.89150    0.82680    0.89150   1.00
O2       0.89150    0.89150    0.82680   1.00
C1       0.91500    0.91500    1.02020   1.00
C1       0.91500    1.02020    0.91500   1.00
C1       0.80980    0.91500    0.91500   1.00
C1       1.02020    0.91500    0.91500   1.00
C1       0.91500    0.80980    0.91500   1.00
C1       0.91500    0.91500    0.80980   1.00
O1       0.41500    0.41500    0.91500   1.00
Zn1      0.38220    0.44780    0.94780   1.00
Zn1      0.44780    0.38220    0.94780   1.00
Zn1      0.44780    0.44780    0.88220   1.00
Zn1      0.38220    0.38220    0.88220   1.00
O2       0.39150    0.43850    1.00320   1.00
O2       0.39150    0.50320    0.93850   1.00
O2       0.32680    0.43850    0.93850   1.00
O2       0.43850    0.39150    1.00320   1.00
O2       0.50320    0.39150    0.93850   1.00
O2       0.43850    0.32680    0.93850   1.00
O2       0.43850    0.50320    0.89150   1.00
O2       0.50320    0.43850    0.89150   1.00
O2       0.43850    0.43850    0.82680   1.00
O2       0.32680    0.39150    0.89150   1.00
O2       0.39150    0.32680    0.89150   1.00
O2       0.39150    0.39150    0.82680   1.00
C1       0.41500    0.41500    1.02020   1.00
C1       0.41500    0.52020    0.91500   1.00
C1       0.30980    0.41500    0.91500   1.00
C1       0.52020    0.41500    0.91500   1.00
C1       0.41500    0.30980    0.91500   1.00
C1       0.41500    0.41500    0.80980   1.00
O1       0.41500    0.91500    0.41500   1.00
Zn1      0.38220    0.94780    0.44780   1.00
Zn1      0.44780    0.88220    0.44780   1.00
Zn1      0.44780    0.94780    0.38220   1.00
Zn1      0.38220    0.88220    0.38220   1.00
O2       0.39150    0.93850    0.50320   1.00
O2       0.39150    1.00320    0.43850   1.00
O2       0.32680    0.93850    0.43850   1.00
O2       0.43850    0.89150    0.50320   1.00
O2       0.50320    0.89150    0.43850   1.00
O2       0.43850    0.82680    0.43850   1.00
O2       0.43850    1.00320    0.39150   1.00
O2       0.50320    0.93850    0.39150   1.00
O2       0.43850    0.93850    0.32680   1.00
O2       0.32680    0.89150    0.39150   1.00
O2       0.39150    0.82680    0.39150   1.00
O2       0.39150    0.89150    0.32680   1.00
C1       0.41500    0.91500    0.52020   1.00
C1       0.41500    1.02020    0.41500   1.00
C1       0.30980    0.91500    0.41500   1.00
C1       0.52020    0.91500    0.41500   1.00
C1       0.41500    0.80980    0.41500   1.00
C1       0.41500    0.91500    0.30980   1.00
O1       0.91500    0.41500    0.41500   1.00
Zn1      0.88220    0.44780    0.44780   1.00
Zn1      0.94780    0.38220    0.44780   1.00
Zn1      0.94780    0.44780    0.38220   1.00
Zn1      0.88220    0.38220    0.38220   1.00
O2       0.89150    0.43850    0.50320   1.00
O2       0.89150    0.50320    0.43850   1.00
O2       0.82680    0.43850    0.43850   1.00
O2       0.93850    0.39150    0.50320   1.00
O2       1.00320    0.39150    0.43850   1.00
O2       0.93850    0.32680    0.43850   1.00
O2       0.93850    0.50320    0.39150   1.00
O2       1.00320    0.43850    0.39150   1.00
O2       0.93850    0.43850    0.32680   1.00
O2       0.82680    0.39150    0.39150   1.00
O2       0.89150    0.32680    0.39150   1.00
O2       0.89150    0.39150    0.32680   1.00
C1       0.91500    0.41500    0.52020   1.00
C1       0.91500    0.52020    0.41500   1.00
C1       0.80980    0.41500    0.41500   1.00
C1       1.02020    0.41500    0.41500   1.00
C1       0.91500    0.30980    0.41500   1.00
C1       0.91500    0.41500    0.30980   1.00
O1       0.41500    0.41500    0.41500   1.00
Zn1      0.44780    0.38220    0.38220   1.00
Zn1      0.38220    0.44780    0.38220   1.00
Zn1      0.38220    0.38220    0.44780   1.00
Zn1      0.44780    0.44780    0.44780   1.00
O2       0.43850    0.39150    0.32680   1.00
O2       0.43850    0.32680    0.39150   1.00
O2       0.50320    0.39150    0.39150   1.00
O2       0.39150    0.43850    0.32680   1.00
O2       0.32680    0.43850    0.39150   1.00
O2       0.39150    0.50320    0.39150   1.00
O2       0.39150    0.32680    0.43850   1.00
O2       0.32680    0.39150    0.43850   1.00
O2       0.39150    0.39150    0.50320   1.00
O2       0.50320    0.43850    0.43850   1.00
O2       0.43850    0.50320    0.43850   1.00
O2       0.43850    0.43850    0.50320   1.00
C1       0.41500    0.41500    0.30980   1.00
C1       0.41500    0.30980    0.41500   1.00
C1       0.52020    0.41500    0.41500   1.00
C1       0.30980    0.41500    0.41500   1.00
C1       0.41500    0.52020    0.41500   1.00
C1       0.41500    0.41500    0.52020   1.00
O1       0.91500    0.91500    0.41500   1.00
Zn1      0.94780    0.88220    0.38220   1.00
Zn1      0.88220    0.94780    0.38220   1.00
Zn1      0.88220    0.88220    0.44780   1.00
Zn1      0.94780    0.94780    0.44780   1.00
O2       0.93850    0.89150    0.32680   1.00
O2       0.93850    0.82680    0.39150   1.00
O2       1.00320    0.89150    0.39150   1.00
O2       0.89150    0.93850    0.32680   1.00
O2       0.82680    0.93850    0.39150   1.00
O2       0.89150    1.00320    0.39150   1.00
O2       0.89150    0.82680    0.43850   1.00
O2       0.82680    0.89150    0.43850   1.00
O2       0.89150    0.89150    0.50320   1.00
O2       1.00320    0.93850    0.43850   1.00
O2       0.93850    1.00320    0.43850   1.00
O2       0.93850    0.93850    0.50320   1.00
C1       0.91500    0.91500    0.30980   1.00
C1       0.91500    0.80980    0.41500   1.00
C1       1.02020    0.91500    0.41500   1.00
C1       0.80980    0.91500    0.41500   1.00
C1       0.91500    1.02020    0.41500   1.00
C1       0.91500    0.91500    0.52020   1.00
O1       0.91500    0.41500    0.91500   1.00
Zn1      0.94780    0.38220    0.88220   1.00
Zn1      0.88220    0.44780    0.88220   1.00
Zn1      0.88220    0.38220    0.94780   1.00
Zn1      0.94780    0.44780    0.94780   1.00
O2       0.93850    0.39150    0.82680   1.00
O2       0.93850    0.32680    0.89150   1.00
O2       1.00320    0.39150    0.89150   1.00
O2       0.89150    0.43850    0.82680   1.00
O2       0.82680    0.43850    0.89150   1.00
O2       0.89150    0.50320    0.89150   1.00
O2       0.89150    0.32680    0.93850   1.00
O2       0.82680    0.39150    0.93850   1.00
O2       0.89150    0.39150    1.00320   1.00
O2       1.00320    0.43850    0.93850   1.00
O2       0.93850    0.50320    0.93850   1.00
O2       0.93850    0.43850    1.00320   1.00
C1       0.91500    0.41500    0.80980   1.00
C1       0.91500    0.30980    0.91500   1.00
C1       1.02020    0.41500    0.91500   1.00
C1       0.80980    0.41500    0.91500   1.00
C1       0.91500    0.52020    0.91500   1.00
C1       0.91500    0.41500    1.02020   1.00
O1       0.41500    0.91500    0.91500   1.00
Zn1      0.44780    0.88220    0.88220   1.00
Zn1      0.38220    0.94780    0.88220   1.00
Zn1      0.38220    0.88220    0.94780   1.00
Zn1      0.44780    0.94780    0.94780   1.00
O2       0.43850    0.89150    0.82680   1.00
O2       0.43850    0.82680    0.89150   1.00
O2       0.50320    0.89150    0.89150   1.00
O2       0.39150    0.93850    0.82680   1.00
O2       0.32680    0.93850    0.89150   1.00
O2       0.39150    1.00320    0.89150   1.00
O2       0.39150    0.82680    0.93850   1.00
O2       0.32680    0.89150    0.93850   1.00
O2       0.39150    0.89150    1.00320   1.00
O2       0.50320    0.93850    0.93850   1.00
O2       0.43850    1.00320    0.93850   1.00
O2       0.43850    0.93850    1.00320   1.00
C1       0.41500    0.91500    0.80980   1.00
C1       0.41500    0.80980    0.91500   1.00
C1       0.52020    0.91500    0.91500   1.00
C1       0.30980    0.91500    0.91500   1.00
C1       0.41500    1.02020    0.91500   1.00
C1       0.41500    0.91500    1.02020   1.00
C4       0.74540    0.75134    0.98025   1.00
C4       0.74486    0.75279    1.02191   1.00
C3       0.73308    0.71781    0.95897   1.00
C3       0.72820    0.72252    1.04504   1.00
C3       0.75873    0.78440    0.95854   1.00
C3       0.76144    0.78558    1.04170   1.00
C2       0.74466    0.74905    0.89595   1.00
C2       0.74547    0.75479    1.10622   1.00
C3       0.73251    0.71669    0.91811   1.00
C3       0.72863    0.72333    1.08591   1.00
C3       0.75748    0.78216    0.91696   1.00
C3       0.76149    0.78518    1.08336   1.00
H1       0.72442    0.69279    0.97237   1.00
H1       0.71478    0.69893    1.03306   1.00
C5       0.77302    0.81838    0.97835   1.00
C5       0.77718    0.81770    1.01998   1.00
H1       0.72315    0.69169    0.90451   1.00
H1       0.71627    0.70052    1.10091   1.00
H1       0.76647    0.80517    0.90052   1.00
H1       0.77325    0.80784    1.09848   1.00
C6       0.78310    0.85461    0.95515   1.00
C6       0.79832    0.85020    1.04119   1.00
H2       0.76041    0.85969    0.93345   1.00
H2       0.81754    0.83750    1.06310   1.00
H2       0.78100    0.88084    0.97286   1.00
H2       0.81905    0.86499    1.02228   1.00
C6       0.82463    0.85283    0.93606   1.00
C6       0.77006    0.88120    1.05942   1.00
H2       0.82912    0.82411    0.92292   1.00
H2       0.74578    0.86635    1.07383   1.00
C6       0.83478    0.88435    0.90459   1.00
C6       0.78779    0.91106    1.08911   1.00
H2       0.84617    0.85480    0.95949   1.00
H2       0.75685    0.89757    1.03546   1.00
C6       0.80948    0.87956    0.86735   1.00
C6       0.80164    0.89066    1.12708   1.00
C6       0.82975    0.92627    0.92074   1.00
C6       0.82230    0.93402    1.07107   1.00
C6       0.87813    0.87916    0.89245   1.00
C6       0.75562    0.94086    1.10054   1.00
H2       0.81190    0.85004    0.85558   1.00
H2       0.77810    0.87366    1.14020   1.00
H2       0.77879    0.88522    0.87330   1.00
H2       0.82598    0.87100    1.12154   1.00
H2       0.81860    0.89988    0.84459   1.00
H2       0.81143    0.91197    1.14863   1.00
H2       0.83954    0.94794    0.89955   1.00
H2       0.83262    0.95665    1.09098   1.00
H2       0.79922    0.93239    0.92725   1.00
H2       0.84685    0.91475    1.06494   1.00
H2       0.84663    0.93017    0.94745   1.00
H2       0.81354    0.94800    1.04385   1.00
H2       0.88319    0.85009    0.88042   1.00
H2       0.73067    0.92615    1.11383   1.00
H2       0.88655    0.90041    0.87025   1.00
H2       0.76655    0.96222    1.12149   1.00
H2       0.89755    0.88300    0.91739   1.00
H2       0.74518    0.95680    1.07502   1.00
C4       0.75134    0.98025    0.74540   1.00
C4       0.75279    1.02191    0.74486   1.00
C3       0.71781    0.95897    0.73308   1.00
C3       0.72252    1.04504    0.72820   1.00
C3       0.78440    0.95854    0.75873   1.00
C3       0.78558    1.04170    0.76144   1.00
C2       0.74905    0.89595    0.74466   1.00
C2       0.75479    1.10622    0.74547   1.00
C3       0.71669    0.91811    0.73251   1.00
C3       0.72333    1.08591    0.72863   1.00
C3       0.78216    0.91696    0.75748   1.00
C3       0.78518    1.08336    0.76149   1.00
H1       0.69279    0.97237    0.72442   1.00
H1       0.69893    1.03306    0.71478   1.00
C5       0.81838    0.97835    0.77302   1.00
C5       0.81770    1.01998    0.77718   1.00
H1       0.69169    0.90451    0.72315   1.00
H1       0.70052    1.10091    0.71627   1.00
H1       0.80517    0.90052    0.76647   1.00
H1       0.80784    1.09848    0.77325   1.00
C6       0.85461    0.95515    0.78310   1.00
C6       0.85020    1.04119    0.79832   1.00
H2       0.85969    0.93345    0.76041   1.00
H2       0.83750    1.06310    0.81754   1.00
H2       0.88084    0.97286    0.78100   1.00
H2       0.86499    1.02228    0.81905   1.00
C6       0.85283    0.93606    0.82463   1.00
C6       0.88120    1.05942    0.77006   1.00
H2       0.82411    0.92292    0.82912   1.00
H2       0.86635    1.07383    0.74578   1.00
C6       0.88435    0.90459    0.83478   1.00
C6       0.91106    1.08911    0.78779   1.00
H2       0.85480    0.95949    0.84617   1.00
H2       0.89757    1.03546    0.75685   1.00
C6       0.87956    0.86735    0.80948   1.00
C6       0.89066    1.12708    0.80164   1.00
C6       0.92627    0.92074    0.82975   1.00
C6       0.93402    1.07107    0.82230   1.00
C6       0.87916    0.89245    0.87813   1.00
C6       0.94086    1.10054    0.75562   1.00
H2       0.85004    0.85558    0.81190   1.00
H2       0.87366    1.14020    0.77810   1.00
H2       0.88522    0.87330    0.77879   1.00
H2       0.87100    1.12154    0.82598   1.00
H2       0.89988    0.84459    0.81860   1.00
H2       0.91197    1.14863    0.81143   1.00
H2       0.94794    0.89955    0.83954   1.00
H2       0.95665    1.09098    0.83262   1.00
H2       0.93239    0.92725    0.79922   1.00
H2       0.91475    1.06494    0.84685   1.00
H2       0.93017    0.94745    0.84663   1.00
H2       0.94800    1.04385    0.81354   1.00
H2       0.85009    0.88042    0.88319   1.00
H2       0.92615    1.11383    0.73067   1.00
H2       0.90041    0.87025    0.88655   1.00
H2       0.96222    1.12149    0.76655   1.00
H2       0.88300    0.91739    0.89755   1.00
H2       0.95680    1.07502    0.74518   1.00
C4       0.51975    0.74540    0.74866   1.00
C4       0.47809    0.74486    0.74721   1.00
C3       0.54103    0.73308    0.78219   1.00
C3       0.45496    0.72820    0.77748   1.00
C3       0.54146    0.75873    0.71560   1.00
C3       0.45830    0.76144    0.71442   1.00
C2       0.60405    0.74466    0.75095   1.00
C2       0.39378    0.74547    0.74521   1.00
C3       0.58189    0.73251    0.78331   1.00
C3       0.41409    0.72863    0.77667   1.00
C3       0.58304    0.75748    0.71784   1.00
C3       0.41664    0.76149    0.71482   1.00
H1       0.52763    0.72442    0.80721   1.00
H1       0.46694    0.71478    0.80107   1.00
C5       0.52165    0.77302    0.68162   1.00
C5       0.48002    0.77718    0.68230   1.00
H1       0.59549    0.72315    0.80831   1.00
H1       0.39909    0.71627    0.79948   1.00
H1       0.59948    0.76647    0.69483   1.00
H1       0.40152    0.77325    0.69216   1.00
C6       0.54485    0.78310    0.64539   1.00
C6       0.45881    0.79832    0.64980   1.00
H2       0.56655    0.76041    0.64031   1.00
H2       0.43690    0.81754    0.66250   1.00
H2       0.52714    0.78100    0.61916   1.00
H2       0.47772    0.81905    0.63501   1.00
C6       0.56394    0.82463    0.64717   1.00
C6       0.44058    0.77006    0.61880   1.00
H2       0.57708    0.82912    0.67589   1.00
H2       0.42617    0.74578    0.63365   1.00
C6       0.59541    0.83478    0.61565   1.00
C6       0.41089    0.78779    0.58894   1.00
H2       0.54051    0.84617    0.64520   1.00
H2       0.46454    0.75685    0.60243   1.00
C6       0.63265    0.80948    0.62044   1.00
C6       0.37292    0.80164    0.60934   1.00
C6       0.57926    0.82975    0.57373   1.00
C6       0.42893    0.82230    0.56598   1.00
C6       0.60755    0.87813    0.62084   1.00
C6       0.39946    0.75562    0.55914   1.00
H2       0.64442    0.81190    0.64996   1.00
H2       0.35980    0.77810    0.62634   1.00
H2       0.62670    0.77879    0.61478   1.00
H2       0.37846    0.82598    0.62900   1.00
H2       0.65541    0.81860    0.60012   1.00
H2       0.35137    0.81143    0.58803   1.00
H2       0.60045    0.83954    0.55206   1.00
H2       0.40902    0.83262    0.54335   1.00
H2       0.57275    0.79922    0.56761   1.00
H2       0.43506    0.84685    0.58525   1.00
H2       0.55255    0.84663    0.56983   1.00
H2       0.45615    0.81354    0.55200   1.00
H2       0.61958    0.88319    0.64991   1.00
H2       0.38617    0.73067    0.57385   1.00
H2       0.62975    0.88655    0.59959   1.00
H2       0.37851    0.76655    0.53778   1.00
H2       0.58261    0.89755    0.61700   1.00
H2       0.42498    0.74518    0.54320   1.00
C4       0.98025    0.74540    0.75134   1.00
C4       1.02191    0.74486    0.75279   1.00
C3       0.95897    0.73308    0.71781   1.00
C3       1.04504    0.72820    0.72252   1.00
C3       0.95854    0.75873    0.78440   1.00
C3       1.04170    0.76144    0.78558   1.00
C2       0.89595    0.74466    0.74905   1.00
C2       1.10622    0.74547    0.75479   1.00
C3       0.91811    0.73251    0.71669   1.00
C3       1.08591    0.72863    0.72333   1.00
C3       0.91696    0.75748    0.78216   1.00
C3       1.08336    0.76149    0.78518   1.00
H1       0.97237    0.72442    0.69279   1.00
H1       1.03306    0.71478    0.69893   1.00
C5       0.97835    0.77302    0.81838   1.00
C5       1.01998    0.77718    0.81770   1.00
H1       0.90451    0.72315    0.69169   1.00
H1       1.10091    0.71627    0.70052   1.00
H1       0.90052    0.76647    0.80517   1.00
H1       1.09848    0.77325    0.80784   1.00
C6       0.95515    0.78310    0.85461   1.00
C6       1.04119    0.79832    0.85020   1.00
H2       0.93345    0.76041    0.85969   1.00
H2       1.06310    0.81754    0.83750   1.00
H2       0.97286    0.78100    0.88084   1.00
H2       1.02228    0.81905    0.86499   1.00
C6       0.93606    0.82463    0.85283   1.00
C6       1.05942    0.77006    0.88120   1.00
H2       0.92292    0.82912    0.82411   1.00
H2       1.07383    0.74578    0.86635   1.00
C6       0.90459    0.83478    0.88435   1.00
C6       1.08911    0.78779    0.91106   1.00
H2       0.95949    0.84617    0.85480   1.00
H2       1.03546    0.75685    0.89757   1.00
C6       0.86735    0.80948    0.87956   1.00
C6       1.12708    0.80164    0.89066   1.00
C6       0.92074    0.82975    0.92627   1.00
C6       1.07107    0.82230    0.93402   1.00
C6       0.89245    0.87813    0.87916   1.00
C6       1.10054    0.75562    0.94086   1.00
H2       0.85558    0.81190    0.85004   1.00
H2       1.14020    0.77810    0.87366   1.00
H2       0.87330    0.77879    0.88522   1.00
H2       1.12154    0.82598    0.87100   1.00
H2       0.84459    0.81860    0.89988   1.00
H2       1.14863    0.81143    0.91197   1.00
H2       0.89955    0.83954    0.94794   1.00
H2       1.09098    0.83262    0.95665   1.00
H2       0.92725    0.79922    0.93239   1.00
H2       1.06494    0.84685    0.91475   1.00
H2       0.94745    0.84663    0.93017   1.00
H2       1.04385    0.81354    0.94800   1.00
H2       0.88042    0.88319    0.85009   1.00
H2       1.11383    0.73067    0.92615   1.00
H2       0.87025    0.88655    0.90041   1.00
H2       1.12149    0.76655    0.96222   1.00
H2       0.91739    0.89755    0.88300   1.00
H2       1.07502    0.74518    0.95680   1.00
C4       0.74866    0.51975    0.74540   1.00
C4       0.74721    0.47809    0.74486   1.00
C3       0.78219    0.54103    0.73308   1.00
C3       0.77748    0.45496    0.72820   1.00
C3       0.71560    0.54146    0.75873   1.00
C3       0.71442    0.45830    0.76144   1.00
C2       0.75095    0.60405    0.74466   1.00
C2       0.74521    0.39378    0.74547   1.00
C3       0.78331    0.58189    0.73251   1.00
C3       0.77667    0.41409    0.72863   1.00
C3       0.71784    0.58304    0.75748   1.00
C3       0.71482    0.41664    0.76149   1.00
H1       0.80721    0.52763    0.72442   1.00
H1       0.80107    0.46694    0.71478   1.00
C5       0.68162    0.52165    0.77302   1.00
C5       0.68230    0.48002    0.77718   1.00
H1       0.80831    0.59549    0.72315   1.00
H1       0.79948    0.39909    0.71627   1.00
H1       0.69483    0.59948    0.76647   1.00
H1       0.69216    0.40152    0.77325   1.00
C6       0.64539    0.54485    0.78310   1.00
C6       0.64980    0.45881    0.79832   1.00
H2       0.64031    0.56655    0.76041   1.00
H2       0.66250    0.43690    0.81754   1.00
H2       0.61916    0.52714    0.78100   1.00
H2       0.63501    0.47772    0.81905   1.00
C6       0.64717    0.56394    0.82463   1.00
C6       0.61880    0.44058    0.77006   1.00
H2       0.67589    0.57708    0.82912   1.00
H2       0.63365    0.42617    0.74578   1.00
C6       0.61565    0.59541    0.83478   1.00
C6       0.58894    0.41089    0.78779   1.00
H2       0.64520    0.54051    0.84617   1.00
H2       0.60243    0.46454    0.75685   1.00
C6       0.62044    0.63265    0.80948   1.00
C6       0.60934    0.37292    0.80164   1.00
C6       0.57373    0.57926    0.82975   1.00
C6       0.56598    0.42893    0.82230   1.00
C6       0.62084    0.60755    0.87813   1.00
C6       0.55914    0.39946    0.75562   1.00
H2       0.64996    0.64442    0.81190   1.00
H2       0.62634    0.35980    0.77810   1.00
H2       0.61478    0.62670    0.77879   1.00
H2       0.62900    0.37846    0.82598   1.00
H2       0.60012    0.65541    0.81860   1.00
H2       0.58803    0.35137    0.81143   1.00
H2       0.55206    0.60045    0.83954   1.00
H2       0.54335    0.40902    0.83262   1.00
H2       0.56761    0.57275    0.79922   1.00
H2       0.58525    0.43506    0.84685   1.00
H2       0.56983    0.55255    0.84663   1.00
H2       0.55200    0.45615    0.81354   1.00
H2       0.64991    0.61958    0.88319   1.00
H2       0.57385    0.38617    0.73067   1.00
H2       0.59959    0.62975    0.88655   1.00
H2       0.53778    0.37851    0.76655   1.00
H2       0.61700    0.58261    0.89755   1.00
H2       0.54320    0.42498    0.74518   1.00
C4       0.74540    0.74866    0.51975   1.00
C4       0.74486    0.74721    0.47809   1.00
C3       0.73308    0.78219    0.54103   1.00
C3       0.72820    0.77748    0.45496   1.00
C3       0.75873    0.71560    0.54146   1.00
C3       0.76144    0.71442    0.45830   1.00
C2       0.74466    0.75095    0.60405   1.00
C2       0.74547    0.74521    0.39378   1.00
C3       0.73251    0.78331    0.58189   1.00
C3       0.72863    0.77667    0.41409   1.00
C3       0.75748    0.71784    0.58304   1.00
C3       0.76149    0.71482    0.41664   1.00
H1       0.72442    0.80721    0.52763   1.00
H1       0.71478    0.80107    0.46694   1.00
C5       0.77302    0.68162    0.52165   1.00
C5       0.77718    0.68230    0.48002   1.00
H1       0.72315    0.80831    0.59549   1.00
H1       0.71627    0.79948    0.39909   1.00
H1       0.76647    0.69483    0.59948   1.00
H1       0.77325    0.69216    0.40152   1.00
C6       0.78310    0.64539    0.54485   1.00
C6       0.79832    0.64980    0.45881   1.00
H2       0.76041    0.64031    0.56655   1.00
H2       0.81754    0.66250    0.43690   1.00
H2       0.78100    0.61916    0.52714   1.00
H2       0.81905    0.63501    0.47772   1.00
C6       0.82463    0.64717    0.56394   1.00
C6       0.77006    0.61880    0.44058   1.00
H2       0.82912    0.67589    0.57708   1.00
H2       0.74578    0.63365    0.42617   1.00
C6       0.83478    0.61565    0.59541   1.00
C6       0.78779    0.58894    0.41089   1.00
H2       0.84617    0.64520    0.54051   1.00
H2       0.75685    0.60243    0.46454   1.00
C6       0.80948    0.62044    0.63265   1.00
C6       0.80164    0.60934    0.37292   1.00
C6       0.82975    0.57373    0.57926   1.00
C6       0.82230    0.56598    0.42893   1.00
C6       0.87813    0.62084    0.60755   1.00
C6       0.75562    0.55914    0.39946   1.00
H2       0.81190    0.64996    0.64442   1.00
H2       0.77810    0.62634    0.35980   1.00
H2       0.77879    0.61478    0.62670   1.00
H2       0.82598    0.62900    0.37846   1.00
H2       0.81860    0.60012    0.65541   1.00
H2       0.81143    0.58803    0.35137   1.00
H2       0.83954    0.55206    0.60045   1.00
H2       0.83262    0.54335    0.40902   1.00
H2       0.79922    0.56761    0.57275   1.00
H2       0.84685    0.58525    0.43506   1.00
H2       0.84663    0.56983    0.55255   1.00
H2       0.81354    0.55200    0.45615   1.00
H2       0.88319    0.64991    0.61958   1.00
H2       0.73067    0.57385    0.38617   1.00
H2       0.88655    0.59959    0.62975   1.00
H2       0.76655    0.53778    0.37851   1.00
H2       0.89755    0.61700    0.58261   1.00
H2       0.74518    0.54320    0.42498   1.00
C4       0.24540    0.25134    0.98025   1.00
C4       0.24486    0.25279    1.02191   1.00
C3       0.23308    0.21781    0.95897   1.00
C3       0.22820    0.22252    1.04504   1.00
C3       0.25873    0.28440    0.95854   1.00
C3       0.26144    0.28558    1.04170   1.00
C2       0.24466    0.24905    0.89595   1.00
C2       0.24547    0.25479    1.10622   1.00
C3       0.23251    0.21669    0.91811   1.00
C3       0.22863    0.22333    1.08591   1.00
C3       0.25748    0.28216    0.91696   1.00
C3       0.26149    0.28518    1.08336   1.00
H1       0.22442    0.19279    0.97237   1.00
H1       0.21478    0.19893    1.03306   1.00
C5       0.27302    0.31838    0.97835   1.00
C5       0.27718    0.31770    1.01998   1.00
H1       0.22315    0.19169    0.90451   1.00
H1       0.21627    0.20052    1.10091   1.00
H1       0.26647    0.30517    0.90052   1.00
H1       0.27325    0.30784    1.09848   1.00
C6       0.28310    0.35461    0.95515   1.00
C6       0.29832    0.35020    1.04119   1.00
H2       0.26041    0.35969    0.93345   1.00
H2       0.31754    0.33750    1.06310   1.00
H2       0.28100    0.38084    0.97286   1.00
H2       0.31905    0.36499    1.02228   1.00
C6       0.32463    0.35283    0.93606   1.00
C6       0.27006    0.38120    1.05942   1.00
H2       0.32912    0.32411    0.92292   1.00
H2       0.24578    0.36635    1.07383   1.00
C6       0.33478    0.38435    0.90459   1.00
C6       0.28779    0.41106    1.08911   1.00
H2       0.34617    0.35480    0.95949   1.00
H2       0.25685    0.39757    1.03546   1.00
C6       0.30948    0.37956    0.86735   1.00
C6       0.30164    0.39066    1.12708   1.00
C6       0.32975    0.42627    0.92074   1.00
C6       0.32230    0.43402    1.07107   1.00
C6       0.37813    0.37916    0.89245   1.00
C6       0.25562    0.44086    1.10054   1.00
H2       0.31190    0.35004    0.85558   1.00
H2       0.27810    0.37366    1.14020   1.00
H2       0.27879    0.38522    0.87330   1.00
H2       0.32598    0.37100    1.12154   1.00
H2       0.31860    0.39988    0.84459   1.00
H2       0.31143    0.41197    1.14863   1.00
H2       0.33954    0.44794    0.89955   1.00
H2       0.33262    0.45665    1.09098   1.00
H2       0.29922    0.43239    0.92725   1.00
H2       0.34685    0.41475    1.06494   1.00
H2       0.34663    0.43017    0.94745   1.00
H2       0.31354    0.44800    1.04385   1.00
H2       0.38319    0.35009    0.88042   1.00
H2       0.23067    0.42615    1.11383   1.00
H2       0.38655    0.40041    0.87025   1.00
H2       0.26655    0.46222    1.12149   1.00
H2       0.39755    0.38300    0.91739   1.00
H2       0.24518    0.45680    1.07502   1.00
C4       0.25134    0.48025    0.74540   1.00
C4       0.25279    0.52191    0.74486   1.00
C3       0.21781    0.45897    0.73308   1.00
C3       0.22252    0.54504    0.72820   1.00
C3       0.28440    0.45854    0.75873   1.00
C3       0.28558    0.54170    0.76144   1.00
C2       0.24905    0.39595    0.74466   1.00
C2       0.25479    0.60622    0.74547   1.00
C3       0.21669    0.41811    0.73251   1.00
C3       0.22333    0.58591    0.72863   1.00
C3       0.28216    0.41696    0.75748   1.00
C3       0.28518    0.58336    0.76149   1.00
H1       0.19279    0.47237    0.72442   1.00
H1       0.19893    0.53306    0.71478   1.00
C5       0.31838    0.47835    0.77302   1.00
C5       0.31770    0.51998    0.77718   1.00
H1       0.19169    0.40451    0.72315   1.00
H1       0.20052    0.60091    0.71627   1.00
H1       0.30517    0.40052    0.76647   1.00
H1       0.30784    0.59848    0.77325   1.00
C6       0.35461    0.45515    0.78310   1.00
C6       0.35020    0.54119    0.79832   1.00
H2       0.35969    0.43345    0.76041   1.00
H2       0.33750    0.56310    0.81754   1.00
H2       0.38084    0.47286    0.78100   1.00
H2       0.36499    0.52228    0.81905   1.00
C6       0.35283    0.43606    0.82463   1.00
C6       0.38120    0.55942    0.77006   1.00
H2       0.32411    0.42292    0.82912   1.00
H2       0.36635    0.57383    0.74578   1.00
C6       0.38435    0.40459    0.83478   1.00
C6       0.41106    0.58911    0.78779   1.00
H2       0.35480    0.45949    0.84617   1.00
H2       0.39757    0.53546    0.75685   1.00
C6       0.37956    0.36735    0.80948   1.00
C6       0.39066    0.62708    0.80164   1.00
C6       0.42627    0.42074    0.82975   1.00
C6       0.43402    0.57107    0.82230   1.00
C6       0.37916    0.39245    0.87813   1.00
C6       0.44086    0.60054    0.75562   1.00
H2       0.35004    0.35558    0.81190   1.00
H2       0.37366    0.64020    0.77810   1.00
H2       0.38522    0.37330    0.77879   1.00
H2       0.37100    0.62154    0.82598   1.00
H2       0.39988    0.34459    0.81860   1.00
H2       0.41197    0.64863    0.81143   1.00
H2       0.44794    0.39955    0.83954   1.00
H2       0.45665    0.59098    0.83262   1.00
H2       0.43239    0.42725    0.79922   1.00
H2       0.41475    0.56494    0.84685   1.00
H2       0.43017    0.44745    0.84663   1.00
H2       0.44800    0.54385    0.81354   1.00
H2       0.35009    0.38042    0.88319   1.00
H2       0.42615    0.61383    0.73067   1.00
H2       0.40041    0.37025    0.88655   1.00
H2       0.46222    0.62149    0.76655   1.00
H2       0.38300    0.41739    0.89755   1.00
H2       0.45680    0.57502    0.74518   1.00
C4       0.01975    0.24540    0.74866   1.00
C4       -0.02191   0.24486    0.74721   1.00
C3       0.04103    0.23308    0.78219   1.00
C3       -0.04504   0.22820    0.77748   1.00
C3       0.04146    0.25873    0.71560   1.00
C3       -0.04170   0.26144    0.71442   1.00
C2       0.10405    0.24466    0.75095   1.00
C2       -0.10622   0.24547    0.74521   1.00
C3       0.08189    0.23251    0.78331   1.00
C3       -0.08591   0.22863    0.77667   1.00
C3       0.08304    0.25748    0.71784   1.00
C3       -0.08336   0.26149    0.71482   1.00
H1       0.02763    0.22442    0.80721   1.00
H1       -0.03306   0.21478    0.80107   1.00
C5       0.02165    0.27302    0.68162   1.00
C5       -0.01998   0.27718    0.68230   1.00
H1       0.09549    0.22315    0.80831   1.00
H1       -0.10091   0.21627    0.79948   1.00
H1       0.09948    0.26647    0.69483   1.00
H1       -0.09848   0.27325    0.69216   1.00
C6       0.04485    0.28310    0.64539   1.00
C6       -0.04119   0.29832    0.64980   1.00
H2       0.06655    0.26041    0.64031   1.00
H2       -0.06310   0.31754    0.66250   1.00
H2       0.02714    0.28100    0.61916   1.00
H2       -0.02228   0.31905    0.63501   1.00
C6       0.06394    0.32463    0.64717   1.00
C6       -0.05942   0.27006    0.61880   1.00
H2       0.07708    0.32912    0.67589   1.00
H2       -0.07383   0.24578    0.63365   1.00
C6       0.09541    0.33478    0.61565   1.00
C6       -0.08911   0.28779    0.58894   1.00
H2       0.04051    0.34617    0.64520   1.00
H2       -0.03546   0.25685    0.60243   1.00
C6       0.13265    0.30948    0.62044   1.00
C6       -0.12708   0.30164    0.60934   1.00
C6       0.07926    0.32975    0.57373   1.00
C6       -0.07107   0.32230    0.56598   1.00
C6       0.10755    0.37813    0.62084   1.00
C6       -0.10054   0.25562    0.55914   1.00
H2       0.14442    0.31190    0.64996   1.00
H2       -0.14020   0.27810    0.62634   1.00
H2       0.12670    0.27879    0.61478   1.00
H2       -0.12154   0.32598    0.62900   1.00
H2       0.15541    0.31860    0.60012   1.00
H2       -0.14863   0.31143    0.58803   1.00
H2       0.10045    0.33954    0.55206   1.00
H2       -0.09098   0.33262    0.54335   1.00
H2       0.07275    0.29922    0.56761   1.00
H2       -0.06494   0.34685    0.58525   1.00
H2       0.05255    0.34663    0.56983   1.00
H2       -0.04385   0.31354    0.55200   1.00
H2       0.11958    0.38319    0.64991   1.00
H2       -0.11383   0.23067    0.57385   1.00
H2       0.12975    0.38655    0.59959   1.00
H2       -0.12149   0.26655    0.53778   1.00
H2       0.08261    0.39755    0.61700   1.00
H2       -0.07502   0.24518    0.54320   1.00
C4       0.48025    0.24540    0.75134   1.00
C4       0.52191    0.24486    0.75279   1.00
C3       0.45897    0.23308    0.71781   1.00
C3       0.54504    0.22820    0.72252   1.00
C3       0.45854    0.25873    0.78440   1.00
C3       0.54170    0.26144    0.78558   1.00
C2       0.39595    0.24466    0.74905   1.00
C2       0.60622    0.24547    0.75479   1.00
C3       0.41811    0.23251    0.71669   1.00
C3       0.58591    0.22863    0.72333   1.00
C3       0.41696    0.25748    0.78216   1.00
C3       0.58336    0.26149    0.78518   1.00
H1       0.47237    0.22442    0.69279   1.00
H1       0.53306    0.21478    0.69893   1.00
C5       0.47835    0.27302    0.81838   1.00
C5       0.51998    0.27718    0.81770   1.00
H1       0.40451    0.22315    0.69169   1.00
H1       0.60091    0.21627    0.70052   1.00
H1       0.40052    0.26647    0.80517   1.00
H1       0.59848    0.27325    0.80784   1.00
C6       0.45515    0.28310    0.85461   1.00
C6       0.54119    0.29832    0.85020   1.00
H2       0.43345    0.26041    0.85969   1.00
H2       0.56310    0.31754    0.83750   1.00
H2       0.47286    0.28100    0.88084   1.00
H2       0.52228    0.31905    0.86499   1.00
C6       0.43606    0.32463    0.85283   1.00
C6       0.55942    0.27006    0.88120   1.00
H2       0.42292    0.32912    0.82411   1.00
H2       0.57383    0.24578    0.86635   1.00
C6       0.40459    0.33478    0.88435   1.00
C6       0.58911    0.28779    0.91106   1.00
H2       0.45949    0.34617    0.85480   1.00
H2       0.53546    0.25685    0.89757   1.00
C6       0.36735    0.30948    0.87956   1.00
C6       0.62708    0.30164    0.89066   1.00
C6       0.42074    0.32975    0.92627   1.00
C6       0.57107    0.32230    0.93402   1.00
C6       0.39245    0.37813    0.87916   1.00
C6       0.60054    0.25562    0.94086   1.00
H2       0.35558    0.31190    0.85004   1.00
H2       0.64020    0.27810    0.87366   1.00
H2       0.37330    0.27879    0.88522   1.00
H2       0.62154    0.32598    0.87100   1.00
H2       0.34459    0.31860    0.89988   1.00
H2       0.64863    0.31143    0.91197   1.00
H2       0.39955    0.33954    0.94794   1.00
H2       0.59098    0.33262    0.95665   1.00
H2       0.42725    0.29922    0.93239   1.00
H2       0.56494    0.34685    0.91475   1.00
H2       0.44745    0.34663    0.93017   1.00
H2       0.54385    0.31354    0.94800   1.00
H2       0.38042    0.38319    0.85009   1.00
H2       0.61383    0.23067    0.92615   1.00
H2       0.37025    0.38655    0.90041   1.00
H2       0.62149    0.26655    0.96222   1.00
H2       0.41739    0.39755    0.88300   1.00
H2       0.57502    0.24518    0.95680   1.00
C4       0.24866    0.01975    0.74540   1.00
C4       0.24721    -0.02191   0.74486   1.00
C3       0.28219    0.04103    0.73308   1.00
C3       0.27748    -0.04504   0.72820   1.00
C3       0.21560    0.04146    0.75873   1.00
C3       0.21442    -0.04170   0.76144   1.00
C2       0.25095    0.10405    0.74466   1.00
C2       0.24521    -0.10622   0.74547   1.00
C3       0.28331    0.08189    0.73251   1.00
C3       0.27667    -0.08591   0.72863   1.00
C3       0.21784    0.08304    0.75748   1.00
C3       0.21482    -0.08336   0.76149   1.00
H1       0.30721    0.02763    0.72442   1.00
H1       0.30107    -0.03306   0.71478   1.00
C5       0.18162    0.02165    0.77302   1.00
C5       0.18230    -0.01998   0.77718   1.00
H1       0.30831    0.09549    0.72315   1.00
H1       0.29948    -0.10091   0.71627   1.00
H1       0.19483    0.09948    0.76647   1.00
H1       0.19216    -0.09848   0.77325   1.00
C6       0.14539    0.04485    0.78310   1.00
C6       0.14980    -0.04119   0.79832   1.00
H2       0.14031    0.06655    0.76041   1.00
H2       0.16250    -0.06310   0.81754   1.00
H2       0.11916    0.02714    0.78100   1.00
H2       0.13501    -0.02228   0.81905   1.00
C6       0.14717    0.06394    0.82463   1.00
C6       0.11880    -0.05942   0.77006   1.00
H2       0.17589    0.07708    0.82912   1.00
H2       0.13365    -0.07383   0.74578   1.00
C6       0.11565    0.09541    0.83478   1.00
C6       0.08894    -0.08911   0.78779   1.00
H2       0.14520    0.04051    0.84617   1.00
H2       0.10243    -0.03546   0.75685   1.00
C6       0.12044    0.13265    0.80948   1.00
C6       0.10934    -0.12708   0.80164   1.00
C6       0.07373    0.07926    0.82975   1.00
C6       0.06598    -0.07107   0.82230   1.00
C6       0.12084    0.10755    0.87813   1.00
C6       0.05914    -0.10054   0.75562   1.00
H2       0.14996    0.14442    0.81190   1.00
H2       0.12634    -0.14020   0.77810   1.00
H2       0.11478    0.12670    0.77879   1.00
H2       0.12900    -0.12154   0.82598   1.00
H2       0.10012    0.15541    0.81860   1.00
H2       0.08803    -0.14863   0.81143   1.00
H2       0.05206    0.10045    0.83954   1.00
H2       0.04335    -0.09098   0.83262   1.00
H2       0.06761    0.07275    0.79922   1.00
H2       0.08525    -0.06494   0.84685   1.00
H2       0.06983    0.05255    0.84663   1.00
H2       0.05200    -0.04385   0.81354   1.00
H2       0.14991    0.11958    0.88319   1.00
H2       0.07385    -0.11383   0.73067   1.00
H2       0.09959    0.12975    0.88655   1.00
H2       0.03778    -0.12149   0.76655   1.00
H2       0.11700    0.08261    0.89755   1.00
H2       0.04320    -0.07502   0.74518   1.00
C4       0.24540    0.24866    0.51975   1.00
C4       0.24486    0.24721    0.47809   1.00
C3       0.23308    0.28219    0.54103   1.00
C3       0.22820    0.27748    0.45496   1.00
C3       0.25873    0.21560    0.54146   1.00
C3       0.26144    0.21442    0.45830   1.00
C2       0.24466    0.25095    0.60405   1.00
C2       0.24547    0.24521    0.39378   1.00
C3       0.23251    0.28331    0.58189   1.00
C3       0.22863    0.27667    0.41409   1.00
C3       0.25748    0.21784    0.58304   1.00
C3       0.26149    0.21482    0.41664   1.00
H1       0.22442    0.30721    0.52763   1.00
H1       0.21478    0.30107    0.46694   1.00
C5       0.27302    0.18162    0.52165   1.00
C5       0.27718    0.18230    0.48002   1.00
H1       0.22315    0.30831    0.59549   1.00
H1       0.21627    0.29948    0.39909   1.00
H1       0.26647    0.19483    0.59948   1.00
H1       0.27325    0.19216    0.40152   1.00
C6       0.28310    0.14539    0.54485   1.00
C6       0.29832    0.14980    0.45881   1.00
H2       0.26041    0.14031    0.56655   1.00
H2       0.31754    0.16250    0.43690   1.00
H2       0.28100    0.11916    0.52714   1.00
H2       0.31905    0.13501    0.47772   1.00
C6       0.32463    0.14717    0.56394   1.00
C6       0.27006    0.11880    0.44058   1.00
H2       0.32912    0.17589    0.57708   1.00
H2       0.24578    0.13365    0.42617   1.00
C6       0.33478    0.11565    0.59541   1.00
C6       0.28779    0.08894    0.41089   1.00
H2       0.34617    0.14520    0.54051   1.00
H2       0.25685    0.10243    0.46454   1.00
C6       0.30948    0.12044    0.63265   1.00
C6       0.30164    0.10934    0.37292   1.00
C6       0.32975    0.07373    0.57926   1.00
C6       0.32230    0.06598    0.42893   1.00
C6       0.37813    0.12084    0.60755   1.00
C6       0.25562    0.05914    0.39946   1.00
H2       0.31190    0.14996    0.64442   1.00
H2       0.27810    0.12634    0.35980   1.00
H2       0.27879    0.11478    0.62670   1.00
H2       0.32598    0.12900    0.37846   1.00
H2       0.31860    0.10012    0.65541   1.00
H2       0.31143    0.08803    0.35137   1.00
H2       0.33954    0.05206    0.60045   1.00
H2       0.33262    0.04335    0.40902   1.00
H2       0.29922    0.06761    0.57275   1.00
H2       0.34685    0.08525    0.43506   1.00
H2       0.34663    0.06983    0.55255   1.00
H2       0.31354    0.05200    0.45615   1.00
H2       0.38319    0.14991    0.61958   1.00
H2       0.23067    0.07385    0.38617   1.00
H2       0.38655    0.09959    0.62975   1.00
H2       0.26655    0.03778    0.37851   1.00
H2       0.39755    0.11700    0.58261   1.00
H2       0.24518    0.04320    0.42498   1.00
C4       0.24540    0.75134    0.48025   1.00
C4       0.24486    0.75279    0.52191   1.00
C3       0.23308    0.71781    0.45897   1.00
C3       0.22820    0.72252    0.54504   1.00
C3       0.25873    0.78440    0.45854   1.00
C3       0.26144    0.78558    0.54170   1.00
C2       0.24466    0.74905    0.39595   1.00
C2       0.24547    0.75479    0.60622   1.00
C3       0.23251    0.71669    0.41811   1.00
C3       0.22863    0.72333    0.58591   1.00
C3       0.25748    0.78216    0.41696   1.00
C3       0.26149    0.78518    0.58336   1.00
H1       0.22442    0.69279    0.47237   1.00
H1       0.21478    0.69893    0.53306   1.00
C5       0.27302    0.81838    0.47835   1.00
C5       0.27718    0.81770    0.51998   1.00
H1       0.22315    0.69169    0.40451   1.00
H1       0.21627    0.70052    0.60091   1.00
H1       0.26647    0.80517    0.40052   1.00
H1       0.27325    0.80784    0.59848   1.00
C6       0.28310    0.85461    0.45515   1.00
C6       0.29832    0.85020    0.54119   1.00
H2       0.26041    0.85969    0.43345   1.00
H2       0.31754    0.83750    0.56310   1.00
H2       0.28100    0.88084    0.47286   1.00
H2       0.31905    0.86499    0.52228   1.00
C6       0.32463    0.85283    0.43606   1.00
C6       0.27006    0.88120    0.55942   1.00
H2       0.32912    0.82411    0.42292   1.00
H2       0.24578    0.86635    0.57383   1.00
C6       0.33478    0.88435    0.40459   1.00
C6       0.28779    0.91106    0.58911   1.00
H2       0.34617    0.85480    0.45949   1.00
H2       0.25685    0.89757    0.53546   1.00
C6       0.30948    0.87956    0.36735   1.00
C6       0.30164    0.89066    0.62708   1.00
C6       0.32975    0.92627    0.42074   1.00
C6       0.32230    0.93402    0.57107   1.00
C6       0.37813    0.87916    0.39245   1.00
C6       0.25562    0.94086    0.60054   1.00
H2       0.31190    0.85004    0.35558   1.00
H2       0.27810    0.87366    0.64020   1.00
H2       0.27879    0.88522    0.37330   1.00
H2       0.32598    0.87100    0.62154   1.00
H2       0.31860    0.89988    0.34459   1.00
H2       0.31143    0.91197    0.64863   1.00
H2       0.33954    0.94794    0.39955   1.00
H2       0.33262    0.95665    0.59098   1.00
H2       0.29922    0.93239    0.42725   1.00
H2       0.34685    0.91475    0.56494   1.00
H2       0.34663    0.93017    0.44745   1.00
H2       0.31354    0.94800    0.54385   1.00
H2       0.38319    0.85009    0.38042   1.00
H2       0.23067    0.92615    0.61383   1.00
H2       0.38655    0.90041    0.37025   1.00
H2       0.26655    0.96222    0.62149   1.00
H2       0.39755    0.88300    0.41739   1.00
H2       0.24518    0.95680    0.57502   1.00
C4       0.25134    0.98025    0.24540   1.00
C4       0.25279    1.02191    0.24486   1.00
C3       0.21781    0.95897    0.23308   1.00
C3       0.22252    1.04504    0.22820   1.00
C3       0.28440    0.95854    0.25873   1.00
C3       0.28558    1.04170    0.26144   1.00
C2       0.24905    0.89595    0.24466   1.00
C2       0.25479    1.10622    0.24547   1.00
C3       0.21669    0.91811    0.23251   1.00
C3       0.22333    1.08591    0.22863   1.00
C3       0.28216    0.91696    0.25748   1.00
C3       0.28518    1.08336    0.26149   1.00
H1       0.19279    0.97237    0.22442   1.00
H1       0.19893    1.03306    0.21478   1.00
C5       0.31838    0.97835    0.27302   1.00
C5       0.31770    1.01998    0.27718   1.00
H1       0.19169    0.90451    0.22315   1.00
H1       0.20052    1.10091    0.21627   1.00
H1       0.30517    0.90052    0.26647   1.00
H1       0.30784    1.09848    0.27325   1.00
C6       0.35461    0.95515    0.28310   1.00
C6       0.35020    1.04119    0.29832   1.00
H2       0.35969    0.93345    0.26041   1.00
H2       0.33750    1.06310    0.31754   1.00
H2       0.38084    0.97286    0.28100   1.00
H2       0.36499    1.02228    0.31905   1.00
C6       0.35283    0.93606    0.32463   1.00
C6       0.38120    1.05942    0.27006   1.00
H2       0.32411    0.92292    0.32912   1.00
H2       0.36635    1.07383    0.24578   1.00
C6       0.38435    0.90459    0.33478   1.00
C6       0.41106    1.08911    0.28779   1.00
H2       0.35480    0.95949    0.34617   1.00
H2       0.39757    1.03546    0.25685   1.00
C6       0.37956    0.86735    0.30948   1.00
C6       0.39066    1.12708    0.30164   1.00
C6       0.42627    0.92074    0.32975   1.00
C6       0.43402    1.07107    0.32230   1.00
C6       0.37916    0.89245    0.37813   1.00
C6       0.44086    1.10054    0.25562   1.00
H2       0.35004    0.85558    0.31190   1.00
H2       0.37366    1.14020    0.27810   1.00
H2       0.38522    0.87330    0.27879   1.00
H2       0.37100    1.12154    0.32598   1.00
H2       0.39988    0.84459    0.31860   1.00
H2       0.41197    1.14863    0.31143   1.00
H2       0.44794    0.89955    0.33954   1.00
H2       0.45665    1.09098    0.33262   1.00
H2       0.43239    0.92725    0.29922   1.00
H2       0.41475    1.06494    0.34685   1.00
H2       0.43017    0.94745    0.34663   1.00
H2       0.44800    1.04385    0.31354   1.00
H2       0.35009    0.88042    0.38319   1.00
H2       0.42615    1.11383    0.23067   1.00
H2       0.40041    0.87025    0.38655   1.00
H2       0.46222    1.12149    0.26655   1.00
H2       0.38300    0.91739    0.39755   1.00
H2       0.45680    1.07502    0.24518   1.00
C4       0.01975    0.74540    0.24866   1.00
C4       -0.02191   0.74486    0.24721   1.00
C3       0.04103    0.73308    0.28219   1.00
C3       -0.04504   0.72820    0.27748   1.00
C3       0.04146    0.75873    0.21560   1.00
C3       -0.04170   0.76144    0.21442   1.00
C2       0.10405    0.74466    0.25095   1.00
C2       -0.10622   0.74547    0.24521   1.00
C3       0.08189    0.73251    0.28331   1.00
C3       -0.08591   0.72863    0.27667   1.00
C3       0.08304    0.75748    0.21784   1.00
C3       -0.08336   0.76149    0.21482   1.00
H1       0.02763    0.72442    0.30721   1.00
H1       -0.03306   0.71478    0.30107   1.00
C5       0.02165    0.77302    0.18162   1.00
C5       -0.01998   0.77718    0.18230   1.00
H1       0.09549    0.72315    0.30831   1.00
H1       -0.10091   0.71627    0.29948   1.00
H1       0.09948    0.76647    0.19483   1.00
H1       -0.09848   0.77325    0.19216   1.00
C6       0.04485    0.78310    0.14539   1.00
C6       -0.04119   0.79832    0.14980   1.00
H2       0.06655    0.76041    0.14031   1.00
H2       -0.06310   0.81754    0.16250   1.00
H2       0.02714    0.78100    0.11916   1.00
H2       -0.02228   0.81905    0.13501   1.00
C6       0.06394    0.82463    0.14717   1.00
C6       -0.05942   0.77006    0.11880   1.00
H2       0.07708    0.82912    0.17589   1.00
H2       -0.07383   0.74578    0.13365   1.00
C6       0.09541    0.83478    0.11565   1.00
C6       -0.08911   0.78779    0.08894   1.00
H2       0.04051    0.84617    0.14520   1.00
H2       -0.03546   0.75685    0.10243   1.00
C6       0.13265    0.80948    0.12044   1.00
C6       -0.12708   0.80164    0.10934   1.00
C6       0.07926    0.82975    0.07373   1.00
C6       -0.07107   0.82230    0.06598   1.00
C6       0.10755    0.87813    0.12084   1.00
C6       -0.10054   0.75562    0.05914   1.00
H2       0.14442    0.81190    0.14996   1.00
H2       -0.14020   0.77810    0.12634   1.00
H2       0.12670    0.77879    0.11478   1.00
H2       -0.12154   0.82598    0.12900   1.00
H2       0.15541    0.81860    0.10012   1.00
H2       -0.14863   0.81143    0.08803   1.00
H2       0.10045    0.83954    0.05206   1.00
H2       -0.09098   0.83262    0.04335   1.00
H2       0.07275    0.79922    0.06761   1.00
H2       -0.06494   0.84685    0.08525   1.00
H2       0.05255    0.84663    0.06983   1.00
H2       -0.04385   0.81354    0.05200   1.00
H2       0.11958    0.88319    0.14991   1.00
H2       -0.11383   0.73067    0.07385   1.00
H2       0.12975    0.88655    0.09959   1.00
H2       -0.12149   0.76655    0.03778   1.00
H2       0.08261    0.89755    0.11700   1.00
H2       -0.07502   0.74518    0.04320   1.00
C4       0.48025    0.74540    0.25134   1.00
C4       0.52191    0.74486    0.25279   1.00
C3       0.45897    0.73308    0.21781   1.00
C3       0.54504    0.72820    0.22252   1.00
C3       0.45854    0.75873    0.28440   1.00
C3       0.54170    0.76144    0.28558   1.00
C2       0.39595    0.74466    0.24905   1.00
C2       0.60622    0.74547    0.25479   1.00
C3       0.41811    0.73251    0.21669   1.00
C3       0.58591    0.72863    0.22333   1.00
C3       0.41696    0.75748    0.28216   1.00
C3       0.58336    0.76149    0.28518   1.00
H1       0.47237    0.72442    0.19279   1.00
H1       0.53306    0.71478    0.19893   1.00
C5       0.47835    0.77302    0.31838   1.00
C5       0.51998    0.77718    0.31770   1.00
H1       0.40451    0.72315    0.19169   1.00
H1       0.60091    0.71627    0.20052   1.00
H1       0.40052    0.76647    0.30517   1.00
H1       0.59848    0.77325    0.30784   1.00
C6       0.45515    0.78310    0.35461   1.00
C6       0.54119    0.79832    0.35020   1.00
H2       0.43345    0.76041    0.35969   1.00
H2       0.56310    0.81754    0.33750   1.00
H2       0.47286    0.78100    0.38084   1.00
H2       0.52228    0.81905    0.36499   1.00
C6       0.43606    0.82463    0.35283   1.00
C6       0.55942    0.77006    0.38120   1.00
H2       0.42292    0.82912    0.32411   1.00
H2       0.57383    0.74578    0.36635   1.00
C6       0.40459    0.83478    0.38435   1.00
C6       0.58911    0.78779    0.41106   1.00
H2       0.45949    0.84617    0.35480   1.00
H2       0.53546    0.75685    0.39757   1.00
C6       0.36735    0.80948    0.37956   1.00
C6       0.62708    0.80164    0.39066   1.00
C6       0.42074    0.82975    0.42627   1.00
C6       0.57107    0.82230    0.43402   1.00
C6       0.39245    0.87813    0.37916   1.00
C6       0.60054    0.75562    0.44086   1.00
H2       0.35558    0.81190    0.35004   1.00
H2       0.64020    0.77810    0.37366   1.00
H2       0.37330    0.77879    0.38522   1.00
H2       0.62154    0.82598    0.37100   1.00
H2       0.34459    0.81860    0.39988   1.00
H2       0.64863    0.81143    0.41197   1.00
H2       0.39955    0.83954    0.44794   1.00
H2       0.59098    0.83262    0.45665   1.00
H2       0.42725    0.79922    0.43239   1.00
H2       0.56494    0.84685    0.41475   1.00
H2       0.44745    0.84663    0.43017   1.00
H2       0.54385    0.81354    0.44800   1.00
H2       0.38042    0.88319    0.35009   1.00
H2       0.61383    0.73067    0.42615   1.00
H2       0.37025    0.88655    0.40041   1.00
H2       0.62149    0.76655    0.46222   1.00
H2       0.41739    0.89755    0.38300   1.00
H2       0.57502    0.74518    0.45680   1.00
C4       0.24866    0.51975    0.24540   1.00
C4       0.24721    0.47809    0.24486   1.00
C3       0.28219    0.54103    0.23308   1.00
C3       0.27748    0.45496    0.22820   1.00
C3       0.21560    0.54146    0.25873   1.00
C3       0.21442    0.45830    0.26144   1.00
C2       0.25095    0.60405    0.24466   1.00
C2       0.24521    0.39378    0.24547   1.00
C3       0.28331    0.58189    0.23251   1.00
C3       0.27667    0.41409    0.22863   1.00
C3       0.21784    0.58304    0.25748   1.00
C3       0.21482    0.41664    0.26149   1.00
H1       0.30721    0.52763    0.22442   1.00
H1       0.30107    0.46694    0.21478   1.00
C5       0.18162    0.52165    0.27302   1.00
C5       0.18230    0.48002    0.27718   1.00
H1       0.30831    0.59549    0.22315   1.00
H1       0.29948    0.39909    0.21627   1.00
H1       0.19483    0.59948    0.26647   1.00
H1       0.19216    0.40152    0.27325   1.00
C6       0.14539    0.54485    0.28310   1.00
C6       0.14980    0.45881    0.29832   1.00
H2       0.14031    0.56655    0.26041   1.00
H2       0.16250    0.43690    0.31754   1.00
H2       0.11916    0.52714    0.28100   1.00
H2       0.13501    0.47772    0.31905   1.00
C6       0.14717    0.56394    0.32463   1.00
C6       0.11880    0.44058    0.27006   1.00
H2       0.17589    0.57708    0.32912   1.00
H2       0.13365    0.42617    0.24578   1.00
C6       0.11565    0.59541    0.33478   1.00
C6       0.08894    0.41089    0.28779   1.00
H2       0.14520    0.54051    0.34617   1.00
H2       0.10243    0.46454    0.25685   1.00
C6       0.12044    0.63265    0.30948   1.00
C6       0.10934    0.37292    0.30164   1.00
C6       0.07373    0.57926    0.32975   1.00
C6       0.06598    0.42893    0.32230   1.00
C6       0.12084    0.60755    0.37813   1.00
C6       0.05914    0.39946    0.25562   1.00
H2       0.14996    0.64442    0.31190   1.00
H2       0.12634    0.35980    0.27810   1.00
H2       0.11478    0.62670    0.27879   1.00
H2       0.12900    0.37846    0.32598   1.00
H2       0.10012    0.65541    0.31860   1.00
H2       0.08803    0.35137    0.31143   1.00
H2       0.05206    0.60045    0.33954   1.00
H2       0.04335    0.40902    0.33262   1.00
H2       0.06761    0.57275    0.29922   1.00
H2       0.08525    0.43506    0.34685   1.00
H2       0.06983    0.55255    0.34663   1.00
H2       0.05200    0.45615    0.31354   1.00
H2       0.14991    0.61958    0.38319   1.00
H2       0.07385    0.38617    0.23067   1.00
H2       0.09959    0.62975    0.38655   1.00
H2       0.03778    0.37851    0.26655   1.00
H2       0.11700    0.58261    0.39755   1.00
H2       0.04320    0.42498    0.24518   1.00
C4       0.24540    0.74866    0.01975   1.00
C4       0.24486    0.74721    -0.02191   1.00
C3       0.23308    0.78219    0.04103   1.00
C3       0.22820    0.77748    -0.04504   1.00
C3       0.25873    0.71560    0.04146   1.00
C3       0.26144    0.71442    -0.04170   1.00
C2       0.24466    0.75095    0.10405   1.00
C2       0.24547    0.74521    -0.10622   1.00
C3       0.23251    0.78331    0.08189   1.00
C3       0.22863    0.77667    -0.08591   1.00
C3       0.25748    0.71784    0.08304   1.00
C3       0.26149    0.71482    -0.08336   1.00
H1       0.22442    0.80721    0.02763   1.00
H1       0.21478    0.80107    -0.03306   1.00
C5       0.27302    0.68162    0.02165   1.00
C5       0.27718    0.68230    -0.01998   1.00
H1       0.22315    0.80831    0.09549   1.00
H1       0.21627    0.79948    -0.10091   1.00
H1       0.26647    0.69483    0.09948   1.00
H1       0.27325    0.69216    -0.09848   1.00
C6       0.28310    0.64539    0.04485   1.00
C6       0.29832    0.64980    -0.04119   1.00
H2       0.26041    0.64031    0.06655   1.00
H2       0.31754    0.66250    -0.06310   1.00
H2       0.28100    0.61916    0.02714   1.00
H2       0.31905    0.63501    -0.02228   1.00
C6       0.32463    0.64717    0.06394   1.00
C6       0.27006    0.61880    -0.05942   1.00
H2       0.32912    0.67589    0.07708   1.00
H2       0.24578    0.63365    -0.07383   1.00
C6       0.33478    0.61565    0.09541   1.00
C6       0.28779    0.58894    -0.08911   1.00
H2       0.34617    0.64520    0.04051   1.00
H2       0.25685    0.60243    -0.03546   1.00
C6       0.30948    0.62044    0.13265   1.00
C6       0.30164    0.60934    -0.12708   1.00
C6       0.32975    0.57373    0.07926   1.00
C6       0.32230    0.56598    -0.07107   1.00
C6       0.37813    0.62084    0.10755   1.00
C6       0.25562    0.55914    -0.10054   1.00
H2       0.31190    0.64996    0.14442   1.00
H2       0.27810    0.62634    -0.14020   1.00
H2       0.27879    0.61478    0.12670   1.00
H2       0.32598    0.62900    -0.12154   1.00
H2       0.31860    0.60012    0.15541   1.00
H2       0.31143    0.58803    -0.14863   1.00
H2       0.33954    0.55206    0.10045   1.00
H2       0.33262    0.54335    -0.09098   1.00
H2       0.29922    0.56761    0.07275   1.00
H2       0.34685    0.58525    -0.06494   1.00
H2       0.34663    0.56983    0.05255   1.00
H2       0.31354    0.55200    -0.04385   1.00
H2       0.38319    0.64991    0.11958   1.00
H2       0.23067    0.57385    -0.11383   1.00
H2       0.38655    0.59959    0.12975   1.00
H2       0.26655    0.53778    -0.12149   1.00
H2       0.39755    0.61700    0.08261   1.00
H2       0.24518    0.54320    -0.07502   1.00
C4       0.74540    0.25134    0.48025   1.00
C4       0.74486    0.25279    0.52191   1.00
C3       0.73308    0.21781    0.45897   1.00
C3       0.72820    0.22252    0.54504   1.00
C3       0.75873    0.28440    0.45854   1.00
C3       0.76144    0.28558    0.54170   1.00
C2       0.74466    0.24905    0.39595   1.00
C2       0.74547    0.25479    0.60622   1.00
C3       0.73251    0.21669    0.41811   1.00
C3       0.72863    0.22333    0.58591   1.00
C3       0.75748    0.28216    0.41696   1.00
C3       0.76149    0.28518    0.58336   1.00
H1       0.72442    0.19279    0.47237   1.00
H1       0.71478    0.19893    0.53306   1.00
C5       0.77302    0.31838    0.47835   1.00
C5       0.77718    0.31770    0.51998   1.00
H1       0.72315    0.19169    0.40451   1.00
H1       0.71627    0.20052    0.60091   1.00
H1       0.76647    0.30517    0.40052   1.00
H1       0.77325    0.30784    0.59848   1.00
C6       0.78310    0.35461    0.45515   1.00
C6       0.79832    0.35020    0.54119   1.00
H2       0.76041    0.35969    0.43345   1.00
H2       0.81754    0.33750    0.56310   1.00
H2       0.78100    0.38084    0.47286   1.00
H2       0.81905    0.36499    0.52228   1.00
C6       0.82463    0.35283    0.43606   1.00
C6       0.77006    0.38120    0.55942   1.00
H2       0.82912    0.32411    0.42292   1.00
H2       0.74578    0.36635    0.57383   1.00
C6       0.83478    0.38435    0.40459   1.00
C6       0.78779    0.41106    0.58911   1.00
H2       0.84617    0.35480    0.45949   1.00
H2       0.75685    0.39757    0.53546   1.00
C6       0.80948    0.37956    0.36735   1.00
C6       0.80164    0.39066    0.62708   1.00
C6       0.82975    0.42627    0.42074   1.00
C6       0.82230    0.43402    0.57107   1.00
C6       0.87813    0.37916    0.39245   1.00
C6       0.75562    0.44086    0.60054   1.00
H2       0.81190    0.35004    0.35558   1.00
H2       0.77810    0.37366    0.64020   1.00
H2       0.77879    0.38522    0.37330   1.00
H2       0.82598    0.37100    0.62154   1.00
H2       0.81860    0.39988    0.34459   1.00
H2       0.81143    0.41197    0.64863   1.00
H2       0.83954    0.44794    0.39955   1.00
H2       0.83262    0.45665    0.59098   1.00
H2       0.79922    0.43239    0.42725   1.00
H2       0.84685    0.41475    0.56494   1.00
H2       0.84663    0.43017    0.44745   1.00
H2       0.81354    0.44800    0.54385   1.00
H2       0.88319    0.35009    0.38042   1.00
H2       0.73067    0.42615    0.61383   1.00
H2       0.88655    0.40041    0.37025   1.00
H2       0.76655    0.46222    0.62149   1.00
H2       0.89755    0.38300    0.41739   1.00
H2       0.74518    0.45680    0.57502   1.00
C4       0.75134    0.48025    0.24540   1.00
C4       0.75279    0.52191    0.24486   1.00
C3       0.71781    0.45897    0.23308   1.00
C3       0.72252    0.54504    0.22820   1.00
C3       0.78440    0.45854    0.25873   1.00
C3       0.78558    0.54170    0.26144   1.00
C2       0.74905    0.39595    0.24466   1.00
C2       0.75479    0.60622    0.24547   1.00
C3       0.71669    0.41811    0.23251   1.00
C3       0.72333    0.58591    0.22863   1.00
C3       0.78216    0.41696    0.25748   1.00
C3       0.78518    0.58336    0.26149   1.00
H1       0.69279    0.47237    0.22442   1.00
H1       0.69893    0.53306    0.21478   1.00
C5       0.81838    0.47835    0.27302   1.00
C5       0.81770    0.51998    0.27718   1.00
H1       0.69169    0.40451    0.22315   1.00
H1       0.70052    0.60091    0.21627   1.00
H1       0.80517    0.40052    0.26647   1.00
H1       0.80784    0.59848    0.27325   1.00
C6       0.85461    0.45515    0.28310   1.00
C6       0.85020    0.54119    0.29832   1.00
H2       0.85969    0.43345    0.26041   1.00
H2       0.83750    0.56310    0.31754   1.00
H2       0.88084    0.47286    0.28100   1.00
H2       0.86499    0.52228    0.31905   1.00
C6       0.85283    0.43606    0.32463   1.00
C6       0.88120    0.55942    0.27006   1.00
H2       0.82411    0.42292    0.32912   1.00
H2       0.86635    0.57383    0.24578   1.00
C6       0.88435    0.40459    0.33478   1.00
C6       0.91106    0.58911    0.28779   1.00
H2       0.85480    0.45949    0.34617   1.00
H2       0.89757    0.53546    0.25685   1.00
C6       0.87956    0.36735    0.30948   1.00
C6       0.89066    0.62708    0.30164   1.00
C6       0.92627    0.42074    0.32975   1.00
C6       0.93402    0.57107    0.32230   1.00
C6       0.87916    0.39245    0.37813   1.00
C6       0.94086    0.60054    0.25562   1.00
H2       0.85004    0.35558    0.31190   1.00
H2       0.87366    0.64020    0.27810   1.00
H2       0.88522    0.37330    0.27879   1.00
H2       0.87100    0.62154    0.32598   1.00
H2       0.89988    0.34459    0.31860   1.00
H2       0.91197    0.64863    0.31143   1.00
H2       0.94794    0.39955    0.33954   1.00
H2       0.95665    0.59098    0.33262   1.00
H2       0.93239    0.42725    0.29922   1.00
H2       0.91475    0.56494    0.34685   1.00
H2       0.93017    0.44745    0.34663   1.00
H2       0.94800    0.54385    0.31354   1.00
H2       0.85009    0.38042    0.38319   1.00
H2       0.92615    0.61383    0.23067   1.00
H2       0.90041    0.37025    0.38655   1.00
H2       0.96222    0.62149    0.26655   1.00
H2       0.88300    0.41739    0.39755   1.00
H2       0.95680    0.57502    0.24518   1.00
C4       0.51975    0.24540    0.24866   1.00
C4       0.47809    0.24486    0.24721   1.00
C3       0.54103    0.23308    0.28219   1.00
C3       0.45496    0.22820    0.27748   1.00
C3       0.54146    0.25873    0.21560   1.00
C3       0.45830    0.26144    0.21442   1.00
C2       0.60405    0.24466    0.25095   1.00
C2       0.39378    0.24547    0.24521   1.00
C3       0.58189    0.23251    0.28331   1.00
C3       0.41409    0.22863    0.27667   1.00
C3       0.58304    0.25748    0.21784   1.00
C3       0.41664    0.26149    0.21482   1.00
H1       0.52763    0.22442    0.30721   1.00
H1       0.46694    0.21478    0.30107   1.00
C5       0.52165    0.27302    0.18162   1.00
C5       0.48002    0.27718    0.18230   1.00
H1       0.59549    0.22315    0.30831   1.00
H1       0.39909    0.21627    0.29948   1.00
H1       0.59948    0.26647    0.19483   1.00
H1       0.40152    0.27325    0.19216   1.00
C6       0.54485    0.28310    0.14539   1.00
C6       0.45881    0.29832    0.14980   1.00
H2       0.56655    0.26041    0.14031   1.00
H2       0.43690    0.31754    0.16250   1.00
H2       0.52714    0.28100    0.11916   1.00
H2       0.47772    0.31905    0.13501   1.00
C6       0.56394    0.32463    0.14717   1.00
C6       0.44058    0.27006    0.11880   1.00
H2       0.57708    0.32912    0.17589   1.00
H2       0.42617    0.24578    0.13365   1.00
C6       0.59541    0.33478    0.11565   1.00
C6       0.41089    0.28779    0.08894   1.00
H2       0.54051    0.34617    0.14520   1.00
H2       0.46454    0.25685    0.10243   1.00
C6       0.63265    0.30948    0.12044   1.00
C6       0.37292    0.30164    0.10934   1.00
C6       0.57926    0.32975    0.07373   1.00
C6       0.42893    0.32230    0.06598   1.00
C6       0.60755    0.37813    0.12084   1.00
C6       0.39946    0.25562    0.05914   1.00
H2       0.64442    0.31190    0.14996   1.00
H2       0.35980    0.27810    0.12634   1.00
H2       0.62670    0.27879    0.11478   1.00
H2       0.37846    0.32598    0.12900   1.00
H2       0.65541    0.31860    0.10012   1.00
H2       0.35137    0.31143    0.08803   1.00
H2       0.60045    0.33954    0.05206   1.00
H2       0.40902    0.33262    0.04335   1.00
H2       0.57275    0.29922    0.06761   1.00
H2       0.43506    0.34685    0.08525   1.00
H2       0.55255    0.34663    0.06983   1.00
H2       0.45615    0.31354    0.05200   1.00
H2       0.61958    0.38319    0.14991   1.00
H2       0.38617    0.23067    0.07385   1.00
H2       0.62975    0.38655    0.09959   1.00
H2       0.37851    0.26655    0.03778   1.00
H2       0.58261    0.39755    0.11700   1.00
H2       0.42498    0.24518    0.04320   1.00
C4       0.98025    0.24540    0.25134   1.00
C4       1.02191    0.24486    0.25279   1.00
C3       0.95897    0.23308    0.21781   1.00
C3       1.04504    0.22820    0.22252   1.00
C3       0.95854    0.25873    0.28440   1.00
C3       1.04170    0.26144    0.28558   1.00
C2       0.89595    0.24466    0.24905   1.00
C2       1.10622    0.24547    0.25479   1.00
C3       0.91811    0.23251    0.21669   1.00
C3       1.08591    0.22863    0.22333   1.00
C3       0.91696    0.25748    0.28216   1.00
C3       1.08336    0.26149    0.28518   1.00
H1       0.97237    0.22442    0.19279   1.00
H1       1.03306    0.21478    0.19893   1.00
C5       0.97835    0.27302    0.31838   1.00
C5       1.01998    0.27718    0.31770   1.00
H1       0.90451    0.22315    0.19169   1.00
H1       1.10091    0.21627    0.20052   1.00
H1       0.90052    0.26647    0.30517   1.00
H1       1.09848    0.27325    0.30784   1.00
C6       0.95515    0.28310    0.35461   1.00
C6       1.04119    0.29832    0.35020   1.00
H2       0.93345    0.26041    0.35969   1.00
H2       1.06310    0.31754    0.33750   1.00
H2       0.97286    0.28100    0.38084   1.00
H2       1.02228    0.31905    0.36499   1.00
C6       0.93606    0.32463    0.35283   1.00
C6       1.05942    0.27006    0.38120   1.00
H2       0.92292    0.32912    0.32411   1.00
H2       1.07383    0.24578    0.36635   1.00
C6       0.90459    0.33478    0.38435   1.00
C6       1.08911    0.28779    0.41106   1.00
H2       0.95949    0.34617    0.35480   1.00
H2       1.03546    0.25685    0.39757   1.00
C6       0.86735    0.30948    0.37956   1.00
C6       1.12708    0.30164    0.39066   1.00
C6       0.92074    0.32975    0.42627   1.00
C6       1.07107    0.32230    0.43402   1.00
C6       0.89245    0.37813    0.37916   1.00
C6       1.10054    0.25562    0.44086   1.00
H2       0.85558    0.31190    0.35004   1.00
H2       1.14020    0.27810    0.37366   1.00
H2       0.87330    0.27879    0.38522   1.00
H2       1.12154    0.32598    0.37100   1.00
H2       0.84459    0.31860    0.39988   1.00
H2       1.14863    0.31143    0.41197   1.00
H2       0.89955    0.33954    0.44794   1.00
H2       1.09098    0.33262    0.45665   1.00
H2       0.92725    0.29922    0.43239   1.00
H2       1.06494    0.34685    0.41475   1.00
H2       0.94745    0.34663    0.43017   1.00
H2       1.04385    0.31354    0.44800   1.00
H2       0.88042    0.38319    0.35009   1.00
H2       1.11383    0.23067    0.42615   1.00
H2       0.87025    0.38655    0.40041   1.00
H2       1.12149    0.26655    0.46222   1.00
H2       0.91739    0.39755    0.38300   1.00
H2       1.07502    0.24518    0.45680   1.00
C4       0.74866    0.01975    0.24540   1.00
C4       0.74721    -0.02191   0.24486   1.00
C3       0.78219    0.04103    0.23308   1.00
C3       0.77748    -0.04504   0.22820   1.00
C3       0.71560    0.04146    0.25873   1.00
C3       0.71442    -0.04170   0.26144   1.00
C2       0.75095    0.10405    0.24466   1.00
C2       0.74521    -0.10622   0.24547   1.00
C3       0.78331    0.08189    0.23251   1.00
C3       0.77667    -0.08591   0.22863   1.00
C3       0.71784    0.08304    0.25748   1.00
C3       0.71482    -0.08336   0.26149   1.00
H1       0.80721    0.02763    0.22442   1.00
H1       0.80107    -0.03306   0.21478   1.00
C5       0.68162    0.02165    0.27302   1.00
C5       0.68230    -0.01998   0.27718   1.00
H1       0.80831    0.09549    0.22315   1.00
H1       0.79948    -0.10091   0.21627   1.00
H1       0.69483    0.09948    0.26647   1.00
H1       0.69216    -0.09848   0.27325   1.00
C6       0.64539    0.04485    0.28310   1.00
C6       0.64980    -0.04119   0.29832   1.00
H2       0.64031    0.06655    0.26041   1.00
H2       0.66250    -0.06310   0.31754   1.00
H2       0.61916    0.02714    0.28100   1.00
H2       0.63501    -0.02228   0.31905   1.00
C6       0.64717    0.06394    0.32463   1.00
C6       0.61880    -0.05942   0.27006   1.00
H2       0.67589    0.07708    0.32912   1.00
H2       0.63365    -0.07383   0.24578   1.00
C6       0.61565    0.09541    0.33478   1.00
C6       0.58894    -0.08911   0.28779   1.00
H2       0.64520    0.04051    0.34617   1.00
H2       0.60243    -0.03546   0.25685   1.00
C6       0.62044    0.13265    0.30948   1.00
C6       0.60934    -0.12708   0.30164   1.00
C6       0.57373    0.07926    0.32975   1.00
C6       0.56598    -0.07107   0.32230   1.00
C6       0.62084    0.10755    0.37813   1.00
C6       0.55914    -0.10054   0.25562   1.00
H2       0.64996    0.14442    0.31190   1.00
H2       0.62634    -0.14020   0.27810   1.00
H2       0.61478    0.12670    0.27879   1.00
H2       0.62900    -0.12154   0.32598   1.00
H2       0.60012    0.15541    0.31860   1.00
H2       0.58803    -0.14863   0.31143   1.00
H2       0.55206    0.10045    0.33954   1.00
H2       0.54335    -0.09098   0.33262   1.00
H2       0.56761    0.07275    0.29922   1.00
H2       0.58525    -0.06494   0.34685   1.00
H2       0.56983    0.05255    0.34663   1.00
H2       0.55200    -0.04385   0.31354   1.00
H2       0.64991    0.11958    0.38319   1.00
H2       0.57385    -0.11383   0.23067   1.00
H2       0.59959    0.12975    0.38655   1.00
H2       0.53778    -0.12149   0.26655   1.00
H2       0.61700    0.08261    0.39755   1.00
H2       0.54320    -0.07502   0.24518   1.00
C4       0.74540    0.24866    0.01975   1.00
C4       0.74486    0.24721    -0.02191   1.00
C3       0.73308    0.28219    0.04103   1.00
C3       0.72820    0.27748    -0.04504   1.00
C3       0.75873    0.21560    0.04146   1.00
C3       0.76144    0.21442    -0.04170   1.00
C2       0.74466    0.25095    0.10405   1.00
C2       0.74547    0.24521    -0.10622   1.00
C3       0.73251    0.28331    0.08189   1.00
C3       0.72863    0.27667    -0.08591   1.00
C3       0.75748    0.21784    0.08304   1.00
C3       0.76149    0.21482    -0.08336   1.00
H1       0.72442    0.30721    0.02763   1.00
H1       0.71478    0.30107    -0.03306   1.00
C5       0.77302    0.18162    0.02165   1.00
C5       0.77718    0.18230    -0.01998   1.00
H1       0.72315    0.30831    0.09549   1.00
H1       0.71627    0.29948    -0.10091   1.00
H1       0.76647    0.19483    0.09948   1.00
H1       0.77325    0.19216    -0.09848   1.00
C6       0.78310    0.14539    0.04485   1.00
C6       0.79832    0.14980    -0.04119   1.00
H2       0.76041    0.14031    0.06655   1.00
H2       0.81754    0.16250    -0.06310   1.00
H2       0.78100    0.11916    0.02714   1.00
H2       0.81905    0.13501    -0.02228   1.00
C6       0.82463    0.14717    0.06394   1.00
C6       0.77006    0.11880    -0.05942   1.00
H2       0.82912    0.17589    0.07708   1.00
H2       0.74578    0.13365    -0.07383   1.00
C6       0.83478    0.11565    0.09541   1.00
C6       0.78779    0.08894    -0.08911   1.00
H2       0.84617    0.14520    0.04051   1.00
H2       0.75685    0.10243    -0.03546   1.00
C6       0.80948    0.12044    0.13265   1.00
C6       0.80164    0.10934    -0.12708   1.00
C6       0.82975    0.07373    0.07926   1.00
C6       0.82230    0.06598    -0.07107   1.00
C6       0.87813    0.12084    0.10755   1.00
C6       0.75562    0.05914    -0.10054   1.00
H2       0.81190    0.14996    0.14442   1.00
H2       0.77810    0.12634    -0.14020   1.00
H2       0.77879    0.11478    0.12670   1.00
H2       0.82598    0.12900    -0.12154   1.00
H2       0.81860    0.10012    0.15541   1.00
H2       0.81143    0.08803    -0.14863   1.00
H2       0.83954    0.05206    0.10045   1.00
H2       0.83262    0.04335    -0.09098   1.00
H2       0.79922    0.06761    0.07275   1.00
H2       0.84685    0.08525    -0.06494   1.00
H2       0.84663    0.06983    0.05255   1.00
H2       0.81354    0.05200    -0.04385   1.00
H2       0.88319    0.14991    0.11958   1.00
H2       0.73067    0.07385    -0.11383   1.00
H2       0.88655    0.09959    0.12975   1.00
H2       0.76655    0.03778    -0.12149   1.00
H2       0.89755    0.11700    0.08261   1.00
H2       0.74518    0.04320    -0.07502   1.00
C4       0.91040    0.91634    1.14525   1.00
C4       0.90986    0.91779    1.18691   1.00
C3       0.89808    0.88281    1.12397   1.00
C3       0.89320    0.88752    1.21004   1.00
C3       0.92373    0.94940    1.12354   1.00
C3       0.92644    0.95058    1.20670   1.00
C2       0.90966    0.91405    1.06095   1.00
C2       0.91047    0.91979    1.27122   1.00
C3       0.89751    0.88169    1.08311   1.00
C3       0.89363    0.88833    1.25091   1.00
C3       0.92248    0.94716    1.08196   1.00
C3       0.92649    0.95018    1.24836   1.00
H1       0.88942    0.85779    1.13737   1.00
H1       0.87978    0.86393    1.19806   1.00
C5       0.93802    0.98338    1.14335   1.00
C5       0.94218    0.98270    1.18498   1.00
H1       0.88815    0.85669    1.06951   1.00
H1       0.88127    0.86552    1.26591   1.00
H1       0.93147    0.97017    1.06552   1.00
H1       0.93825    0.97284    1.26348   1.00
C6       0.94810    1.01961    1.12015   1.00
C6       0.96332    1.01520    1.20619   1.00
H2       0.92541    1.02469    1.09845   1.00
H2       0.98254    1.00250    1.22810   1.00
H2       0.94600    1.04584    1.13786   1.00
H2       0.98405    1.02999    1.18728   1.00
C6       0.98963    1.01783    1.10106   1.00
C6       0.93506    1.04620    1.22442   1.00
H2       0.99412    0.98911    1.08792   1.00
H2       0.91078    1.03135    1.23883   1.00
C6       0.99978    1.04935    1.06959   1.00
C6       0.95279    1.07606    1.25411   1.00
H2       1.01117    1.01980    1.12449   1.00
H2       0.92185    1.06257    1.20046   1.00
C6       0.97448    1.04456    1.03235   1.00
C6       0.96664    1.05566    1.29208   1.00
C6       0.99475    1.09127    1.08574   1.00
C6       0.98730    1.09902    1.23607   1.00
C6       1.04313    1.04416    1.05745   1.00
C6       0.92062    1.10586    1.26554   1.00
H2       0.97690    1.01504    1.02058   1.00
H2       0.94310    1.03866    1.30520   1.00
H2       0.94379    1.05022    1.03830   1.00
H2       0.99098    1.03600    1.28654   1.00
H2       0.98360    1.06488    1.00959   1.00
H2       0.97643    1.07697    1.31363   1.00
H2       1.00454    1.11294    1.06455   1.00
H2       0.99762    1.12165    1.25598   1.00
H2       0.96422    1.09739    1.09225   1.00
H2       1.01185    1.07975    1.22994   1.00
H2       1.01163    1.09517    1.11245   1.00
H2       0.97854    1.11300    1.20885   1.00
H2       1.04819    1.01509    1.04542   1.00
H2       0.89567    1.09115    1.27883   1.00
H2       1.05155    1.06541    1.03525   1.00
H2       0.93155    1.12722    1.28649   1.00
H2       1.06255    1.04800    1.08239   1.00
H2       0.91018    1.12180    1.24002   1.00
C4       0.91634    1.14525    0.91040   1.00
C4       0.91779    1.18691    0.90986   1.00
C3       0.88281    1.12397    0.89808   1.00
C3       0.88752    1.21004    0.89320   1.00
C3       0.94940    1.12354    0.92373   1.00
C3       0.95058    1.20670    0.92644   1.00
C2       0.91405    1.06095    0.90966   1.00
C2       0.91979    1.27122    0.91047   1.00
C3       0.88169    1.08311    0.89751   1.00
C3       0.88833    1.25091    0.89363   1.00
C3       0.94716    1.08196    0.92248   1.00
C3       0.95018    1.24836    0.92649   1.00
H1       0.85779    1.13737    0.88942   1.00
H1       0.86393    1.19806    0.87978   1.00
C5       0.98338    1.14335    0.93802   1.00
C5       0.98270    1.18498    0.94218   1.00
H1       0.85669    1.06951    0.88815   1.00
H1       0.86552    1.26591    0.88127   1.00
H1       0.97017    1.06552    0.93147   1.00
H1       0.97284    1.26348    0.93825   1.00
C6       1.01961    1.12015    0.94810   1.00
C6       1.01520    1.20619    0.96332   1.00
H2       1.02469    1.09845    0.92541   1.00
H2       1.00250    1.22810    0.98254   1.00
H2       1.04584    1.13786    0.94600   1.00
H2       1.02999    1.18728    0.98405   1.00
C6       1.01783    1.10106    0.98963   1.00
C6       1.04620    1.22442    0.93506   1.00
H2       0.98911    1.08792    0.99412   1.00
H2       1.03135    1.23883    0.91078   1.00
C6       1.04935    1.06959    0.99978   1.00
C6       1.07606    1.25411    0.95279   1.00
H2       1.01980    1.12449    1.01117   1.00
H2       1.06257    1.20046    0.92185   1.00
C6       1.04456    1.03235    0.97448   1.00
C6       1.05566    1.29208    0.96664   1.00
C6       1.09127    1.08574    0.99475   1.00
C6       1.09902    1.23607    0.98730   1.00
C6       1.04416    1.05745    1.04313   1.00
C6       1.10586    1.26554    0.92062   1.00
H2       1.01504    1.02058    0.97690   1.00
H2       1.03866    1.30520    0.94310   1.00
H2       1.05022    1.03830    0.94379   1.00
H2       1.03600    1.28654    0.99098   1.00
H2       1.06488    1.00959    0.98360   1.00
H2       1.07697    1.31363    0.97643   1.00
H2       1.11294    1.06455    1.00454   1.00
H2       1.12165    1.25598    0.99762   1.00
H2       1.09739    1.09225    0.96422   1.00
H2       1.07975    1.22994    1.01185   1.00
H2       1.09517    1.11245    1.01163   1.00
H2       1.11300    1.20885    0.97854   1.00
H2       1.01509    1.04542    1.04819   1.00
H2       1.09115    1.27883    0.89567   1.00
H2       1.06541    1.03525    1.05155   1.00
H2       1.12722    1.28649    0.93155   1.00
H2       1.04800    1.08239    1.06255   1.00
H2       1.12180    1.24002    0.91018   1.00
C4       0.68475    0.91040    0.91366   1.00
C4       0.64309    0.90986    0.91221   1.00
C3       0.70603    0.89808    0.94719   1.00
C3       0.61996    0.89320    0.94248   1.00
C3       0.70646    0.92373    0.88060   1.00
C3       0.62330    0.92644    0.87942   1.00
C2       0.76905    0.90966    0.91595   1.00
C2       0.55878    0.91047    0.91021   1.00
C3       0.74689    0.89751    0.94831   1.00
C3       0.57909    0.89363    0.94167   1.00
C3       0.74804    0.92248    0.88284   1.00
C3       0.58164    0.92649    0.87982   1.00
H1       0.69263    0.88942    0.97221   1.00
H1       0.63194    0.87978    0.96607   1.00
C5       0.68665    0.93802    0.84662   1.00
C5       0.64502    0.94218    0.84730   1.00
H1       0.76049    0.88815    0.97331   1.00
H1       0.56409    0.88127    0.96448   1.00
H1       0.76448    0.93147    0.85983   1.00
H1       0.56652    0.93825    0.85716   1.00
C6       0.70985    0.94810    0.81039   1.00
C6       0.62381    0.96332    0.81480   1.00
H2       0.73155    0.92541    0.80531   1.00
H2       0.60190    0.98254    0.82750   1.00
H2       0.69214    0.94600    0.78416   1.00
H2       0.64272    0.98405    0.80001   1.00
C6       0.72894    0.98963    0.81217   1.00
C6       0.60558    0.93506    0.78380   1.00
H2       0.74208    0.99412    0.84089   1.00
H2       0.59117    0.91078    0.79865   1.00
C6       0.76041    0.99978    0.78065   1.00
C6       0.57589    0.95279    0.75394   1.00
H2       0.70551    1.01117    0.81020   1.00
H2       0.62954    0.92185    0.76743   1.00
C6       0.79765    0.97448    0.78544   1.00
C6       0.53792    0.96664    0.77434   1.00
C6       0.74426    0.99475    0.73873   1.00
C6       0.59393    0.98730    0.73098   1.00
C6       0.77255    1.04313    0.78584   1.00
C6       0.56446    0.92062    0.72414   1.00
H2       0.80942    0.97690    0.81496   1.00
H2       0.52480    0.94310    0.79134   1.00
H2       0.79170    0.94379    0.77978   1.00
H2       0.54346    0.99098    0.79400   1.00
H2       0.82041    0.98360    0.76512   1.00
H2       0.51637    0.97643    0.75303   1.00
H2       0.76545    1.00454    0.71706   1.00
H2       0.57402    0.99762    0.70835   1.00
H2       0.73775    0.96422    0.73261   1.00
H2       0.60006    1.01185    0.75025   1.00
H2       0.71755    1.01163    0.73483   1.00
H2       0.62115    0.97854    0.71700   1.00
H2       0.78458    1.04819    0.81491   1.00
H2       0.55117    0.89567    0.73885   1.00
H2       0.79475    1.05155    0.76459   1.00
H2       0.54351    0.93155    0.70278   1.00
H2       0.74761    1.06255    0.78200   1.00
H2       0.58998    0.91018    0.70820   1.00
C4       1.14525    0.91040    0.91634   1.00
C4       1.18691    0.90986    0.91779   1.00
C3       1.12397    0.89808    0.88281   1.00
C3       1.21004    0.89320    0.88752   1.00
C3       1.12354    0.92373    0.94940   1.00
C3       1.20670    0.92644    0.95058   1.00
C2       1.06095    0.90966    0.91405   1.00
C2       1.27122    0.91047    0.91979   1.00
C3       1.08311    0.89751    0.88169   1.00
C3       1.25091    0.89363    0.88833   1.00
C3       1.08196    0.92248    0.94716   1.00
C3       1.24836    0.92649    0.95018   1.00
H1       1.13737    0.88942    0.85779   1.00
H1       1.19806    0.87978    0.86393   1.00
C5       1.14335    0.93802    0.98338   1.00
C5       1.18498    0.94218    0.98270   1.00
H1       1.06951    0.88815    0.85669   1.00
H1       1.26591    0.88127    0.86552   1.00
H1       1.06552    0.93147    0.97017   1.00
H1       1.26348    0.93825    0.97284   1.00
C6       1.12015    0.94810    1.01961   1.00
C6       1.20619    0.96332    1.01520   1.00
H2       1.09845    0.92541    1.02469   1.00
H2       1.22810    0.98254    1.00250   1.00
H2       1.13786    0.94600    1.04584   1.00
H2       1.18728    0.98405    1.02999   1.00
C6       1.10106    0.98963    1.01783   1.00
C6       1.22442    0.93506    1.04620   1.00
H2       1.08792    0.99412    0.98911   1.00
H2       1.23883    0.91078    1.03135   1.00
C6       1.06959    0.99978    1.04935   1.00
C6       1.25411    0.95279    1.07606   1.00
H2       1.12449    1.01117    1.01980   1.00
H2       1.20046    0.92185    1.06257   1.00
C6       1.03235    0.97448    1.04456   1.00
C6       1.29208    0.96664    1.05566   1.00
C6       1.08574    0.99475    1.09127   1.00
C6       1.23607    0.98730    1.09902   1.00
C6       1.05745    1.04313    1.04416   1.00
C6       1.26554    0.92062    1.10586   1.00
H2       1.02058    0.97690    1.01504   1.00
H2       1.30520    0.94310    1.03866   1.00
H2       1.03830    0.94379    1.05022   1.00
H2       1.28654    0.99098    1.03600   1.00
H2       1.00959    0.98360    1.06488   1.00
H2       1.31363    0.97643    1.07697   1.00
H2       1.06455    1.00454    1.11294   1.00
H2       1.25598    0.99762    1.12165   1.00
H2       1.09225    0.96422    1.09739   1.00
H2       1.22994    1.01185    1.07975   1.00
H2       1.11245    1.01163    1.09517   1.00
H2       1.20885    0.97854    1.11300   1.00
H2       1.04542    1.04819    1.01509   1.00
H2       1.27883    0.89567    1.09115   1.00
H2       1.03525    1.05155    1.06541   1.00
H2       1.28649    0.93155    1.12722   1.00
H2       1.08239    1.06255    1.04800   1.00
H2       1.24002    0.91018    1.12180   1.00
C4       0.91366    0.68475    0.91040   1.00
C4       0.91221    0.64309    0.90986   1.00
C3       0.94719    0.70603    0.89808   1.00
C3       0.94248    0.61996    0.89320   1.00
C3       0.88060    0.70646    0.92373   1.00
C3       0.87942    0.62330    0.92644   1.00
C2       0.91595    0.76905    0.90966   1.00
C2       0.91021    0.55878    0.91047   1.00
C3       0.94831    0.74689    0.89751   1.00
C3       0.94167    0.57909    0.89363   1.00
C3       0.88284    0.74804    0.92248   1.00
C3       0.87982    0.58164    0.92649   1.00
H1       0.97221    0.69263    0.88942   1.00
H1       0.96607    0.63194    0.87978   1.00
C5       0.84662    0.68665    0.93802   1.00
C5       0.84730    0.64502    0.94218   1.00
H1       0.97331    0.76049    0.88815   1.00
H1       0.96448    0.56409    0.88127   1.00
H1       0.85983    0.76448    0.93147   1.00
H1       0.85716    0.56652    0.93825   1.00
C6       0.81039    0.70985    0.94810   1.00
C6       0.81480    0.62381    0.96332   1.00
H2       0.80531    0.73155    0.92541   1.00
H2       0.82750    0.60190    0.98254   1.00
H2       0.78416    0.69214    0.94600   1.00
H2       0.80001    0.64272    0.98405   1.00
C6       0.81217    0.72894    0.98963   1.00
C6       0.78380    0.60558    0.93506   1.00
H2       0.84089    0.74208    0.99412   1.00
H2       0.79865    0.59117    0.91078   1.00
C6       0.78065    0.76041    0.99978   1.00
C6       0.75394    0.57589    0.95279   1.00
H2       0.81020    0.70551    1.01117   1.00
H2       0.76743    0.62954    0.92185   1.00
C6       0.78544    0.79765    0.97448   1.00
C6       0.77434    0.53792    0.96664   1.00
C6       0.73873    0.74426    0.99475   1.00
C6       0.73098    0.59393    0.98730   1.00
C6       0.78584    0.77255    1.04313   1.00
C6       0.72414    0.56446    0.92062   1.00
H2       0.81496    0.80942    0.97690   1.00
H2       0.79134    0.52480    0.94310   1.00
H2       0.77978    0.79170    0.94379   1.00
H2       0.79400    0.54346    0.99098   1.00
H2       0.76512    0.82041    0.98360   1.00
H2       0.75303    0.51637    0.97643   1.00
H2       0.71706    0.76545    1.00454   1.00
H2       0.70835    0.57402    0.99762   1.00
H2       0.73261    0.73775    0.96422   1.00
H2       0.75025    0.60006    1.01185   1.00
H2       0.73483    0.71755    1.01163   1.00
H2       0.71700    0.62115    0.97854   1.00
H2       0.81491    0.78458    1.04819   1.00
H2       0.73885    0.55117    0.89567   1.00
H2       0.76459    0.79475    1.05155   1.00
H2       0.70278    0.54351    0.93155   1.00
H2       0.78200    0.74761    1.06255   1.00
H2       0.70820    0.58998    0.91018   1.00
C4       0.91040    0.91366    0.68475   1.00
C4       0.90986    0.91221    0.64309   1.00
C3       0.89808    0.94719    0.70603   1.00
C3       0.89320    0.94248    0.61996   1.00
C3       0.92373    0.88060    0.70646   1.00
C3       0.92644    0.87942    0.62330   1.00
C2       0.90966    0.91595    0.76905   1.00
C2       0.91047    0.91021    0.55878   1.00
C3       0.89751    0.94831    0.74689   1.00
C3       0.89363    0.94167    0.57909   1.00
C3       0.92248    0.88284    0.74804   1.00
C3       0.92649    0.87982    0.58164   1.00
H1       0.88942    0.97221    0.69263   1.00
H1       0.87978    0.96607    0.63194   1.00
C5       0.93802    0.84662    0.68665   1.00
C5       0.94218    0.84730    0.64502   1.00
H1       0.88815    0.97331    0.76049   1.00
H1       0.88127    0.96448    0.56409   1.00
H1       0.93147    0.85983    0.76448   1.00
H1       0.93825    0.85716    0.56652   1.00
C6       0.94810    0.81039    0.70985   1.00
C6       0.96332    0.81480    0.62381   1.00
H2       0.92541    0.80531    0.73155   1.00
H2       0.98254    0.82750    0.60190   1.00
H2       0.94600    0.78416    0.69214   1.00
H2       0.98405    0.80001    0.64272   1.00
C6       0.98963    0.81217    0.72894   1.00
C6       0.93506    0.78380    0.60558   1.00
H2       0.99412    0.84089    0.74208   1.00
H2       0.91078    0.79865    0.59117   1.00
C6       0.99978    0.78065    0.76041   1.00
C6       0.95279    0.75394    0.57589   1.00
H2       1.01117    0.81020    0.70551   1.00
H2       0.92185    0.76743    0.62954   1.00
C6       0.97448    0.78544    0.79765   1.00
C6       0.96664    0.77434    0.53792   1.00
C6       0.99475    0.73873    0.74426   1.00
C6       0.98730    0.73098    0.59393   1.00
C6       1.04313    0.78584    0.77255   1.00
C6       0.92062    0.72414    0.56446   1.00
H2       0.97690    0.81496    0.80942   1.00
H2       0.94310    0.79134    0.52480   1.00
H2       0.94379    0.77978    0.79170   1.00
H2       0.99098    0.79400    0.54346   1.00
H2       0.98360    0.76512    0.82041   1.00
H2       0.97643    0.75303    0.51637   1.00
H2       1.00454    0.71706    0.76545   1.00
H2       0.99762    0.70835    0.57402   1.00
H2       0.96422    0.73261    0.73775   1.00
H2       1.01185    0.75025    0.60006   1.00
H2       1.01163    0.73483    0.71755   1.00
H2       0.97854    0.71700    0.62115   1.00
H2       1.04819    0.81491    0.78458   1.00
H2       0.89567    0.73885    0.55117   1.00
H2       1.05155    0.76459    0.79475   1.00
H2       0.93155    0.70278    0.54351   1.00
H2       1.06255    0.78200    0.74761   1.00
H2       0.91018    0.70820    0.58998   1.00
C4       0.41040    0.41634    1.14525   1.00
C4       0.40986    0.41779    1.18691   1.00
C3       0.39808    0.38281    1.12397   1.00
C3       0.39320    0.38752    1.21004   1.00
C3       0.42373    0.44940    1.12354   1.00
C3       0.42644    0.45058    1.20670   1.00
C2       0.40966    0.41405    1.06095   1.00
C2       0.41047    0.41979    1.27122   1.00
C3       0.39751    0.38169    1.08311   1.00
C3       0.39363    0.38833    1.25091   1.00
C3       0.42248    0.44716    1.08196   1.00
C3       0.42649    0.45018    1.24836   1.00
H1       0.38942    0.35779    1.13737   1.00
H1       0.37978    0.36393    1.19806   1.00
C5       0.43802    0.48338    1.14335   1.00
C5       0.44218    0.48270    1.18498   1.00
H1       0.38815    0.35669    1.06951   1.00
H1       0.38127    0.36552    1.26591   1.00
H1       0.43147    0.47017    1.06552   1.00
H1       0.43825    0.47284    1.26348   1.00
C6       0.44810    0.51961    1.12015   1.00
C6       0.46332    0.51520    1.20619   1.00
H2       0.42541    0.52469    1.09845   1.00
H2       0.48254    0.50250    1.22810   1.00
H2       0.44600    0.54584    1.13786   1.00
H2       0.48405    0.52999    1.18728   1.00
C6       0.48963    0.51783    1.10106   1.00
C6       0.43506    0.54620    1.22442   1.00
H2       0.49412    0.48911    1.08792   1.00
H2       0.41078    0.53135    1.23883   1.00
C6       0.49978    0.54935    1.06959   1.00
C6       0.45279    0.57606    1.25411   1.00
H2       0.51117    0.51980    1.12449   1.00
H2       0.42185    0.56257    1.20046   1.00
C6       0.47448    0.54456    1.03235   1.00
C6       0.46664    0.55566    1.29208   1.00
C6       0.49475    0.59127    1.08574   1.00
C6       0.48730    0.59902    1.23607   1.00
C6       0.54313    0.54416    1.05745   1.00
C6       0.42062    0.60586    1.26554   1.00
H2       0.47690    0.51504    1.02058   1.00
H2       0.44310    0.53866    1.30520   1.00
H2       0.44379    0.55022    1.03830   1.00
H2       0.49098    0.53600    1.28654   1.00
H2       0.48360    0.56488    1.00959   1.00
H2       0.47643    0.57697    1.31363   1.00
H2       0.50454    0.61294    1.06455   1.00
H2       0.49762    0.62165    1.25598   1.00
H2       0.46422    0.59739    1.09225   1.00
H2       0.51185    0.57975    1.22994   1.00
H2       0.51163    0.59517    1.11245   1.00
H2       0.47854    0.61300    1.20885   1.00
H2       0.54819    0.51509    1.04542   1.00
H2       0.39567    0.59115    1.27883   1.00
H2       0.55155    0.56541    1.03525   1.00
H2       0.43155    0.62722    1.28649   1.00
H2       0.56255    0.54800    1.08239   1.00
H2       0.41018    0.62180    1.24002   1.00
C4       0.41634    0.64525    0.91040   1.00
C4       0.41779    0.68691    0.90986   1.00
C3       0.38281    0.62397    0.89808   1.00
C3       0.38752    0.71004    0.89320   1.00
C3       0.44940    0.62354    0.92373   1.00
C3       0.45058    0.70670    0.92644   1.00
C2       0.41405    0.56095    0.90966   1.00
C2       0.41979    0.77122    0.91047   1.00
C3       0.38169    0.58311    0.89751   1.00
C3       0.38833    0.75091    0.89363   1.00
C3       0.44716    0.58196    0.92248   1.00
C3       0.45018    0.74836    0.92649   1.00
H1       0.35779    0.63737    0.88942   1.00
H1       0.36393    0.69806    0.87978   1.00
C5       0.48338    0.64335    0.93802   1.00
C5       0.48270    0.68498    0.94218   1.00
H1       0.35669    0.56951    0.88815   1.00
H1       0.36552    0.76591    0.88127   1.00
H1       0.47017    0.56552    0.93147   1.00
H1       0.47284    0.76348    0.93825   1.00
C6       0.51961    0.62015    0.94810   1.00
C6       0.51520    0.70619    0.96332   1.00
H2       0.52469    0.59845    0.92541   1.00
H2       0.50250    0.72810    0.98254   1.00
H2       0.54584    0.63786    0.94600   1.00
H2       0.52999    0.68728    0.98405   1.00
C6       0.51783    0.60106    0.98963   1.00
C6       0.54620    0.72442    0.93506   1.00
H2       0.48911    0.58792    0.99412   1.00
H2       0.53135    0.73883    0.91078   1.00
C6       0.54935    0.56959    0.99978   1.00
C6       0.57606    0.75411    0.95279   1.00
H2       0.51980    0.62449    1.01117   1.00
H2       0.56257    0.70046    0.92185   1.00
C6       0.54456    0.53235    0.97448   1.00
C6       0.55566    0.79208    0.96664   1.00
C6       0.59127    0.58574    0.99475   1.00
C6       0.59902    0.73607    0.98730   1.00
C6       0.54416    0.55745    1.04313   1.00
C6       0.60586    0.76554    0.92062   1.00
H2       0.51504    0.52058    0.97690   1.00
H2       0.53866    0.80520    0.94310   1.00
H2       0.55022    0.53830    0.94379   1.00
H2       0.53600    0.78654    0.99098   1.00
H2       0.56488    0.50959    0.98360   1.00
H2       0.57697    0.81363    0.97643   1.00
H2       0.61294    0.56455    1.00454   1.00
H2       0.62165    0.75598    0.99762   1.00
H2       0.59739    0.59225    0.96422   1.00
H2       0.57975    0.72994    1.01185   1.00
H2       0.59517    0.61245    1.01163   1.00
H2       0.61300    0.70885    0.97854   1.00
H2       0.51509    0.54542    1.04819   1.00
H2       0.59115    0.77883    0.89567   1.00
H2       0.56541    0.53525    1.05155   1.00
H2       0.62722    0.78649    0.93155   1.00
H2       0.54800    0.58239    1.06255   1.00
H2       0.62180    0.74002    0.91018   1.00
C4       0.18475    0.41040    0.91366   1.00
C4       0.14309    0.40986    0.91221   1.00
C3       0.20603    0.39808    0.94719   1.00
C3       0.11996    0.39320    0.94248   1.00
C3       0.20646    0.42373    0.88060   1.00
C3       0.12330    0.42644    0.87942   1.00
C2       0.26905    0.40966    0.91595   1.00
C2       0.05878    0.41047    0.91021   1.00
C3       0.24689    0.39751    0.94831   1.00
C3       0.07909    0.39363    0.94167   1.00
C3       0.24804    0.42248    0.88284   1.00
C3       0.08164    0.42649    0.87982   1.00
H1       0.19263    0.38942    0.97221   1.00
H1       0.13194    0.37978    0.96607   1.00
C5       0.18665    0.43802    0.84662   1.00
C5       0.14502    0.44218    0.84730   1.00
H1       0.26049    0.38815    0.97331   1.00
H1       0.06409    0.38127    0.96448   1.00
H1       0.26448    0.43147    0.85983   1.00
H1       0.06652    0.43825    0.85716   1.00
C6       0.20985    0.44810    0.81039   1.00
C6       0.12381    0.46332    0.81480   1.00
H2       0.23155    0.42541    0.80531   1.00
H2       0.10190    0.48254    0.82750   1.00
H2       0.19214    0.44600    0.78416   1.00
H2       0.14272    0.48405    0.80001   1.00
C6       0.22894    0.48963    0.81217   1.00
C6       0.10558    0.43506    0.78380   1.00
H2       0.24208    0.49412    0.84089   1.00
H2       0.09117    0.41078    0.79865   1.00
C6       0.26041    0.49978    0.78065   1.00
C6       0.07589    0.45279    0.75394   1.00
H2       0.20551    0.51117    0.81020   1.00
H2       0.12954    0.42185    0.76743   1.00
C6       0.29765    0.47448    0.78544   1.00
C6       0.03792    0.46664    0.77434   1.00
C6       0.24426    0.49475    0.73873   1.00
C6       0.09393    0.48730    0.73098   1.00
C6       0.27255    0.54313    0.78584   1.00
C6       0.06446    0.42062    0.72414   1.00
H2       0.30942    0.47690    0.81496   1.00
H2       0.02480    0.44310    0.79134   1.00
H2       0.29170    0.44379    0.77978   1.00
H2       0.04346    0.49098    0.79400   1.00
H2       0.32041    0.48360    0.76512   1.00
H2       0.01637    0.47643    0.75303   1.00
H2       0.26545    0.50454    0.71706   1.00
H2       0.07402    0.49762    0.70835   1.00
H2       0.23775    0.46422    0.73261   1.00
H2       0.10006    0.51185    0.75025   1.00
H2       0.21755    0.51163    0.73483   1.00
H2       0.12115    0.47854    0.71700   1.00
H2       0.28458    0.54819    0.81491   1.00
H2       0.05117    0.39567    0.73885   1.00
H2       0.29475    0.55155    0.76459   1.00
H2       0.04351    0.43155    0.70278   1.00
H2       0.24761    0.56255    0.78200   1.00
H2       0.08998    0.41018    0.70820   1.00
C4       0.64525    0.41040    0.91634   1.00
C4       0.68691    0.40986    0.91779   1.00
C3       0.62397    0.39808    0.88281   1.00
C3       0.71004    0.39320    0.88752   1.00
C3       0.62354    0.42373    0.94940   1.00
C3       0.70670    0.42644    0.95058   1.00
C2       0.56095    0.40966    0.91405   1.00
C2       0.77122    0.41047    0.91979   1.00
C3       0.58311    0.39751    0.88169   1.00
C3       0.75091    0.39363    0.88833   1.00
C3       0.58196    0.42248    0.94716   1.00
C3       0.74836    0.42649    0.95018   1.00
H1       0.63737    0.38942    0.85779   1.00
H1       0.69806    0.37978    0.86393   1.00
C5       0.64335    0.43802    0.98338   1.00
C5       0.68498    0.44218    0.98270   1.00
H1       0.56951    0.38815    0.85669   1.00
H1       0.76591    0.38127    0.86552   1.00
H1       0.56552    0.43147    0.97017   1.00
H1       0.76348    0.43825    0.97284   1.00
C6       0.62015    0.44810    1.01961   1.00
C6       0.70619    0.46332    1.01520   1.00
H2       0.59845    0.42541    1.02469   1.00
H2       0.72810    0.48254    1.00250   1.00
H2       0.63786    0.44600    1.04584   1.00
H2       0.68728    0.48405    1.02999   1.00
C6       0.60106    0.48963    1.01783   1.00
C6       0.72442    0.43506    1.04620   1.00
H2       0.58792    0.49412    0.98911   1.00
H2       0.73883    0.41078    1.03135   1.00
C6       0.56959    0.49978    1.04935   1.00
C6       0.75411    0.45279    1.07606   1.00
H2       0.62449    0.51117    1.01980   1.00
H2       0.70046    0.42185    1.06257   1.00
C6       0.53235    0.47448    1.04456   1.00
C6       0.79208    0.46664    1.05566   1.00
C6       0.58574    0.49475    1.09127   1.00
C6       0.73607    0.48730    1.09902   1.00
C6       0.55745    0.54313    1.04416   1.00
C6       0.76554    0.42062    1.10586   1.00
H2       0.52058    0.47690    1.01504   1.00
H2       0.80520    0.44310    1.03866   1.00
H2       0.53830    0.44379    1.05022   1.00
H2       0.78654    0.49098    1.03600   1.00
H2       0.50959    0.48360    1.06488   1.00
H2       0.81363    0.47643    1.07697   1.00
H2       0.56455    0.50454    1.11294   1.00
H2       0.75598    0.49762    1.12165   1.00
H2       0.59225    0.46422    1.09739   1.00
H2       0.72994    0.51185    1.07975   1.00
H2       0.61245    0.51163    1.09517   1.00
H2       0.70885    0.47854    1.11300   1.00
H2       0.54542    0.54819    1.01509   1.00
H2       0.77883    0.39567    1.09115   1.00
H2       0.53525    0.55155    1.06541   1.00
H2       0.78649    0.43155    1.12722   1.00
H2       0.58239    0.56255    1.04800   1.00
H2       0.74002    0.41018    1.12180   1.00
C4       0.41366    0.18475    0.91040   1.00
C4       0.41221    0.14309    0.90986   1.00
C3       0.44719    0.20603    0.89808   1.00
C3       0.44248    0.11996    0.89320   1.00
C3       0.38060    0.20646    0.92373   1.00
C3       0.37942    0.12330    0.92644   1.00
C2       0.41595    0.26905    0.90966   1.00
C2       0.41021    0.05878    0.91047   1.00
C3       0.44831    0.24689    0.89751   1.00
C3       0.44167    0.07909    0.89363   1.00
C3       0.38284    0.24804    0.92248   1.00
C3       0.37982    0.08164    0.92649   1.00
H1       0.47221    0.19263    0.88942   1.00
H1       0.46607    0.13194    0.87978   1.00
C5       0.34662    0.18665    0.93802   1.00
C5       0.34730    0.14502    0.94218   1.00
H1       0.47331    0.26049    0.88815   1.00
H1       0.46448    0.06409    0.88127   1.00
H1       0.35983    0.26448    0.93147   1.00
H1       0.35716    0.06652    0.93825   1.00
C6       0.31039    0.20985    0.94810   1.00
C6       0.31480    0.12381    0.96332   1.00
H2       0.30531    0.23155    0.92541   1.00
H2       0.32750    0.10190    0.98254   1.00
H2       0.28416    0.19214    0.94600   1.00
H2       0.30001    0.14272    0.98405   1.00
C6       0.31217    0.22894    0.98963   1.00
C6       0.28380    0.10558    0.93506   1.00
H2       0.34089    0.24208    0.99412   1.00
H2       0.29865    0.09117    0.91078   1.00
C6       0.28065    0.26041    0.99978   1.00
C6       0.25394    0.07589    0.95279   1.00
H2       0.31020    0.20551    1.01117   1.00
H2       0.26743    0.12954    0.92185   1.00
C6       0.28544    0.29765    0.97448   1.00
C6       0.27434    0.03792    0.96664   1.00
C6       0.23873    0.24426    0.99475   1.00
C6       0.23098    0.09393    0.98730   1.00
C6       0.28584    0.27255    1.04313   1.00
C6       0.22414    0.06446    0.92062   1.00
H2       0.31496    0.30942    0.97690   1.00
H2       0.29134    0.02480    0.94310   1.00
H2       0.27978    0.29170    0.94379   1.00
H2       0.29400    0.04346    0.99098   1.00
H2       0.26512    0.32041    0.98360   1.00
H2       0.25303    0.01637    0.97643   1.00
H2       0.21706    0.26545    1.00454   1.00
H2       0.20835    0.07402    0.99762   1.00
H2       0.23261    0.23775    0.96422   1.00
H2       0.25025    0.10006    1.01185   1.00
H2       0.23483    0.21755    1.01163   1.00
H2       0.21700    0.12115    0.97854   1.00
H2       0.31491    0.28458    1.04819   1.00
H2       0.23885    0.05117    0.89567   1.00
H2       0.26459    0.29475    1.05155   1.00
H2       0.20278    0.04351    0.93155   1.00
H2       0.28200    0.24761    1.06255   1.00
H2       0.20820    0.08998    0.91018   1.00
C4       0.41040    0.41366    0.68475   1.00
C4       0.40986    0.41221    0.64309   1.00
C3       0.39808    0.44719    0.70603   1.00
C3       0.39320    0.44248    0.61996   1.00
C3       0.42373    0.38060    0.70646   1.00
C3       0.42644    0.37942    0.62330   1.00
C2       0.40966    0.41595    0.76905   1.00
C2       0.41047    0.41021    0.55878   1.00
C3       0.39751    0.44831    0.74689   1.00
C3       0.39363    0.44167    0.57909   1.00
C3       0.42248    0.38284    0.74804   1.00
C3       0.42649    0.37982    0.58164   1.00
H1       0.38942    0.47221    0.69263   1.00
H1       0.37978    0.46607    0.63194   1.00
C5       0.43802    0.34662    0.68665   1.00
C5       0.44218    0.34730    0.64502   1.00
H1       0.38815    0.47331    0.76049   1.00
H1       0.38127    0.46448    0.56409   1.00
H1       0.43147    0.35983    0.76448   1.00
H1       0.43825    0.35716    0.56652   1.00
C6       0.44810    0.31039    0.70985   1.00
C6       0.46332    0.31480    0.62381   1.00
H2       0.42541    0.30531    0.73155   1.00
H2       0.48254    0.32750    0.60190   1.00
H2       0.44600    0.28416    0.69214   1.00
H2       0.48405    0.30001    0.64272   1.00
C6       0.48963    0.31217    0.72894   1.00
C6       0.43506    0.28380    0.60558   1.00
H2       0.49412    0.34089    0.74208   1.00
H2       0.41078    0.29865    0.59117   1.00
C6       0.49978    0.28065    0.76041   1.00
C6       0.45279    0.25394    0.57589   1.00
H2       0.51117    0.31020    0.70551   1.00
H2       0.42185    0.26743    0.62954   1.00
C6       0.47448    0.28544    0.79765   1.00
C6       0.46664    0.27434    0.53792   1.00
C6       0.49475    0.23873    0.74426   1.00
C6       0.48730    0.23098    0.59393   1.00
C6       0.54313    0.28584    0.77255   1.00
C6       0.42062    0.22414    0.56446   1.00
H2       0.47690    0.31496    0.80942   1.00
H2       0.44310    0.29134    0.52480   1.00
H2       0.44379    0.27978    0.79170   1.00
H2       0.49098    0.29400    0.54346   1.00
H2       0.48360    0.26512    0.82041   1.00
H2       0.47643    0.25303    0.51637   1.00
H2       0.50454    0.21706    0.76545   1.00
H2       0.49762    0.20835    0.57402   1.00
H2       0.46422    0.23261    0.73775   1.00
H2       0.51185    0.25025    0.60006   1.00
H2       0.51163    0.23483    0.71755   1.00
H2       0.47854    0.21700    0.62115   1.00
H2       0.54819    0.31491    0.78458   1.00
H2       0.39567    0.23885    0.55117   1.00
H2       0.55155    0.26459    0.79475   1.00
H2       0.43155    0.20278    0.54351   1.00
H2       0.56255    0.28200    0.74761   1.00
H2       0.41018    0.20820    0.58998   1.00
C4       0.41040    0.91634    0.64525   1.00
C4       0.40986    0.91779    0.68691   1.00
C3       0.39808    0.88281    0.62397   1.00
C3       0.39320    0.88752    0.71004   1.00
C3       0.42373    0.94940    0.62354   1.00
C3       0.42644    0.95058    0.70670   1.00
C2       0.40966    0.91405    0.56095   1.00
C2       0.41047    0.91979    0.77122   1.00
C3       0.39751    0.88169    0.58311   1.00
C3       0.39363    0.88833    0.75091   1.00
C3       0.42248    0.94716    0.58196   1.00
C3       0.42649    0.95018    0.74836   1.00
H1       0.38942    0.85779    0.63737   1.00
H1       0.37978    0.86393    0.69806   1.00
C5       0.43802    0.98338    0.64335   1.00
C5       0.44218    0.98270    0.68498   1.00
H1       0.38815    0.85669    0.56951   1.00
H1       0.38127    0.86552    0.76591   1.00
H1       0.43147    0.97017    0.56552   1.00
H1       0.43825    0.97284    0.76348   1.00
C6       0.44810    1.01961    0.62015   1.00
C6       0.46332    1.01520    0.70619   1.00
H2       0.42541    1.02469    0.59845   1.00
H2       0.48254    1.00250    0.72810   1.00
H2       0.44600    1.04584    0.63786   1.00
H2       0.48405    1.02999    0.68728   1.00
C6       0.48963    1.01783    0.60106   1.00
C6       0.43506    1.04620    0.72442   1.00
H2       0.49412    0.98911    0.58792   1.00
H2       0.41078    1.03135    0.73883   1.00
C6       0.49978    1.04935    0.56959   1.00
C6       0.45279    1.07606    0.75411   1.00
H2       0.51117    1.01980    0.62449   1.00
H2       0.42185    1.06257    0.70046   1.00
C6       0.47448    1.04456    0.53235   1.00
C6       0.46664    1.05566    0.79208   1.00
C6       0.49475    1.09127    0.58574   1.00
C6       0.48730    1.09902    0.73607   1.00
C6       0.54313    1.04416    0.55745   1.00
C6       0.42062    1.10586    0.76554   1.00
H2       0.47690    1.01504    0.52058   1.00
H2       0.44310    1.03866    0.80520   1.00
H2       0.44379    1.05022    0.53830   1.00
H2       0.49098    1.03600    0.78654   1.00
H2       0.48360    1.06488    0.50959   1.00
H2       0.47643    1.07697    0.81363   1.00
H2       0.50454    1.11294    0.56455   1.00
H2       0.49762    1.12165    0.75598   1.00
H2       0.46422    1.09739    0.59225   1.00
H2       0.51185    1.07975    0.72994   1.00
H2       0.51163    1.09517    0.61245   1.00
H2       0.47854    1.11300    0.70885   1.00
H2       0.54819    1.01509    0.54542   1.00
H2       0.39567    1.09115    0.77883   1.00
H2       0.55155    1.06541    0.53525   1.00
H2       0.43155    1.12722    0.78649   1.00
H2       0.56255    1.04800    0.58239   1.00
H2       0.41018    1.12180    0.74002   1.00
C4       0.41634    1.14525    0.41040   1.00
C4       0.41779    1.18691    0.40986   1.00
C3       0.38281    1.12397    0.39808   1.00
C3       0.38752    1.21004    0.39320   1.00
C3       0.44940    1.12354    0.42373   1.00
C3       0.45058    1.20670    0.42644   1.00
C2       0.41405    1.06095    0.40966   1.00
C2       0.41979    1.27122    0.41047   1.00
C3       0.38169    1.08311    0.39751   1.00
C3       0.38833    1.25091    0.39363   1.00
C3       0.44716    1.08196    0.42248   1.00
C3       0.45018    1.24836    0.42649   1.00
H1       0.35779    1.13737    0.38942   1.00
H1       0.36393    1.19806    0.37978   1.00
C5       0.48338    1.14335    0.43802   1.00
C5       0.48270    1.18498    0.44218   1.00
H1       0.35669    1.06951    0.38815   1.00
H1       0.36552    1.26591    0.38127   1.00
H1       0.47017    1.06552    0.43147   1.00
H1       0.47284    1.26348    0.43825   1.00
C6       0.51961    1.12015    0.44810   1.00
C6       0.51520    1.20619    0.46332   1.00
H2       0.52469    1.09845    0.42541   1.00
H2       0.50250    1.22810    0.48254   1.00
H2       0.54584    1.13786    0.44600   1.00
H2       0.52999    1.18728    0.48405   1.00
C6       0.51783    1.10106    0.48963   1.00
C6       0.54620    1.22442    0.43506   1.00
H2       0.48911    1.08792    0.49412   1.00
H2       0.53135    1.23883    0.41078   1.00
C6       0.54935    1.06959    0.49978   1.00
C6       0.57606    1.25411    0.45279   1.00
H2       0.51980    1.12449    0.51117   1.00
H2       0.56257    1.20046    0.42185   1.00
C6       0.54456    1.03235    0.47448   1.00
C6       0.55566    1.29208    0.46664   1.00
C6       0.59127    1.08574    0.49475   1.00
C6       0.59902    1.23607    0.48730   1.00
C6       0.54416    1.05745    0.54313   1.00
C6       0.60586    1.26554    0.42062   1.00
H2       0.51504    1.02058    0.47690   1.00
H2       0.53866    1.30520    0.44310   1.00
H2       0.55022    1.03830    0.44379   1.00
H2       0.53600    1.28654    0.49098   1.00
H2       0.56488    1.00959    0.48360   1.00
H2       0.57697    1.31363    0.47643   1.00
H2       0.61294    1.06455    0.50454   1.00
H2       0.62165    1.25598    0.49762   1.00
H2       0.59739    1.09225    0.46422   1.00
H2       0.57975    1.22994    0.51185   1.00
H2       0.59517    1.11245    0.51163   1.00
H2       0.61300    1.20885    0.47854   1.00
H2       0.51509    1.04542    0.54819   1.00
H2       0.59115    1.27883    0.39567   1.00
H2       0.56541    1.03525    0.55155   1.00
H2       0.62722    1.28649    0.43155   1.00
H2       0.54800    1.08239    0.56255   1.00
H2       0.62180    1.24002    0.41018   1.00
C4       0.18475    0.91040    0.41366   1.00
C4       0.14309    0.90986    0.41221   1.00
C3       0.20603    0.89808    0.44719   1.00
C3       0.11996    0.89320    0.44248   1.00
C3       0.20646    0.92373    0.38060   1.00
C3       0.12330    0.92644    0.37942   1.00
C2       0.26905    0.90966    0.41595   1.00
C2       0.05878    0.91047    0.41021   1.00
C3       0.24689    0.89751    0.44831   1.00
C3       0.07909    0.89363    0.44167   1.00
C3       0.24804    0.92248    0.38284   1.00
C3       0.08164    0.92649    0.37982   1.00
H1       0.19263    0.88942    0.47221   1.00
H1       0.13194    0.87978    0.46607   1.00
C5       0.18665    0.93802    0.34662   1.00
C5       0.14502    0.94218    0.34730   1.00
H1       0.26049    0.88815    0.47331   1.00
H1       0.06409    0.88127    0.46448   1.00
H1       0.26448    0.93147    0.35983   1.00
H1       0.06652    0.93825    0.35716   1.00
C6       0.20985    0.94810    0.31039   1.00
C6       0.12381    0.96332    0.31480   1.00
H2       0.23155    0.92541    0.30531   1.00
H2       0.10190    0.98254    0.32750   1.00
H2       0.19214    0.94600    0.28416   1.00
H2       0.14272    0.98405    0.30001   1.00
C6       0.22894    0.98963    0.31217   1.00
C6       0.10558    0.93506    0.28380   1.00
H2       0.24208    0.99412    0.34089   1.00
H2       0.09117    0.91078    0.29865   1.00
C6       0.26041    0.99978    0.28065   1.00
C6       0.07589    0.95279    0.25394   1.00
H2       0.20551    1.01117    0.31020   1.00
H2       0.12954    0.92185    0.26743   1.00
C6       0.29765    0.97448    0.28544   1.00
C6       0.03792    0.96664    0.27434   1.00
C6       0.24426    0.99475    0.23873   1.00
C6       0.09393    0.98730    0.23098   1.00
C6       0.27255    1.04313    0.28584   1.00
C6       0.06446    0.92062    0.22414   1.00
H2       0.30942    0.97690    0.31496   1.00
H2       0.02480    0.94310    0.29134   1.00
H2       0.29170    0.94379    0.27978   1.00
H2       0.04346    0.99098    0.29400   1.00
H2       0.32041    0.98360    0.26512   1.00
H2       0.01637    0.97643    0.25303   1.00
H2       0.26545    1.00454    0.21706   1.00
H2       0.07402    0.99762    0.20835   1.00
H2       0.23775    0.96422    0.23261   1.00
H2       0.10006    1.01185    0.25025   1.00
H2       0.21755    1.01163    0.23483   1.00
H2       0.12115    0.97854    0.21700   1.00
H2       0.28458    1.04819    0.31491   1.00
H2       0.05117    0.89567    0.23885   1.00
H2       0.29475    1.05155    0.26459   1.00
H2       0.04351    0.93155    0.20278   1.00
H2       0.24761    1.06255    0.28200   1.00
H2       0.08998    0.91018    0.20820   1.00
C4       0.64525    0.91040    0.41634   1.00
C4       0.68691    0.90986    0.41779   1.00
C3       0.62397    0.89808    0.38281   1.00
C3       0.71004    0.89320    0.38752   1.00
C3       0.62354    0.92373    0.44940   1.00
C3       0.70670    0.92644    0.45058   1.00
C2       0.56095    0.90966    0.41405   1.00
C2       0.77122    0.91047    0.41979   1.00
C3       0.58311    0.89751    0.38169   1.00
C3       0.75091    0.89363    0.38833   1.00
C3       0.58196    0.92248    0.44716   1.00
C3       0.74836    0.92649    0.45018   1.00
H1       0.63737    0.88942    0.35779   1.00
H1       0.69806    0.87978    0.36393   1.00
C5       0.64335    0.93802    0.48338   1.00
C5       0.68498    0.94218    0.48270   1.00
H1       0.56951    0.88815    0.35669   1.00
H1       0.76591    0.88127    0.36552   1.00
H1       0.56552    0.93147    0.47017   1.00
H1       0.76348    0.93825    0.47284   1.00
C6       0.62015    0.94810    0.51961   1.00
C6       0.70619    0.96332    0.51520   1.00
H2       0.59845    0.92541    0.52469   1.00
H2       0.72810    0.98254    0.50250   1.00
H2       0.63786    0.94600    0.54584   1.00
H2       0.68728    0.98405    0.52999   1.00
C6       0.60106    0.98963    0.51783   1.00
C6       0.72442    0.93506    0.54620   1.00
H2       0.58792    0.99412    0.48911   1.00
H2       0.73883    0.91078    0.53135   1.00
C6       0.56959    0.99978    0.54935   1.00
C6       0.75411    0.95279    0.57606   1.00
H2       0.62449    1.01117    0.51980   1.00
H2       0.70046    0.92185    0.56257   1.00
C6       0.53235    0.97448    0.54456   1.00
C6       0.79208    0.96664    0.55566   1.00
C6       0.58574    0.99475    0.59127   1.00
C6       0.73607    0.98730    0.59902   1.00
C6       0.55745    1.04313    0.54416   1.00
C6       0.76554    0.92062    0.60586   1.00
H2       0.52058    0.97690    0.51504   1.00
H2       0.80520    0.94310    0.53866   1.00
H2       0.53830    0.94379    0.55022   1.00
H2       0.78654    0.99098    0.53600   1.00
H2       0.50959    0.98360    0.56488   1.00
H2       0.81363    0.97643    0.57697   1.00
H2       0.56455    1.00454    0.61294   1.00
H2       0.75598    0.99762    0.62165   1.00
H2       0.59225    0.96422    0.59739   1.00
H2       0.72994    1.01185    0.57975   1.00
H2       0.61245    1.01163    0.59517   1.00
H2       0.70885    0.97854    0.61300   1.00
H2       0.54542    1.04819    0.51509   1.00
H2       0.77883    0.89567    0.59115   1.00
H2       0.53525    1.05155    0.56541   1.00
H2       0.78649    0.93155    0.62722   1.00
H2       0.58239    1.06255    0.54800   1.00
H2       0.74002    0.91018    0.62180   1.00
C4       0.41366    0.68475    0.41040   1.00
C4       0.41221    0.64309    0.40986   1.00
C3       0.44719    0.70603    0.39808   1.00
C3       0.44248    0.61996    0.39320   1.00
C3       0.38060    0.70646    0.42373   1.00
C3       0.37942    0.62330    0.42644   1.00
C2       0.41595    0.76905    0.40966   1.00
C2       0.41021    0.55878    0.41047   1.00
C3       0.44831    0.74689    0.39751   1.00
C3       0.44167    0.57909    0.39363   1.00
C3       0.38284    0.74804    0.42248   1.00
C3       0.37982    0.58164    0.42649   1.00
H1       0.47221    0.69263    0.38942   1.00
H1       0.46607    0.63194    0.37978   1.00
C5       0.34662    0.68665    0.43802   1.00
C5       0.34730    0.64502    0.44218   1.00
H1       0.47331    0.76049    0.38815   1.00
H1       0.46448    0.56409    0.38127   1.00
H1       0.35983    0.76448    0.43147   1.00
H1       0.35716    0.56652    0.43825   1.00
C6       0.31039    0.70985    0.44810   1.00
C6       0.31480    0.62381    0.46332   1.00
H2       0.30531    0.73155    0.42541   1.00
H2       0.32750    0.60190    0.48254   1.00
H2       0.28416    0.69214    0.44600   1.00
H2       0.30001    0.64272    0.48405   1.00
C6       0.31217    0.72894    0.48963   1.00
C6       0.28380    0.60558    0.43506   1.00
H2       0.34089    0.74208    0.49412   1.00
H2       0.29865    0.59117    0.41078   1.00
C6       0.28065    0.76041    0.49978   1.00
C6       0.25394    0.57589    0.45279   1.00
H2       0.31020    0.70551    0.51117   1.00
H2       0.26743    0.62954    0.42185   1.00
C6       0.28544    0.79765    0.47448   1.00
C6       0.27434    0.53792    0.46664   1.00
C6       0.23873    0.74426    0.49475   1.00
C6       0.23098    0.59393    0.48730   1.00
C6       0.28584    0.77255    0.54313   1.00
C6       0.22414    0.56446    0.42062   1.00
H2       0.31496    0.80942    0.47690   1.00
H2       0.29134    0.52480    0.44310   1.00
H2       0.27978    0.79170    0.44379   1.00
H2       0.29400    0.54346    0.49098   1.00
H2       0.26512    0.82041    0.48360   1.00
H2       0.25303    0.51637    0.47643   1.00
H2       0.21706    0.76545    0.50454   1.00
H2       0.20835    0.57402    0.49762   1.00
H2       0.23261    0.73775    0.46422   1.00
H2       0.25025    0.60006    0.51185   1.00
H2       0.23483    0.71755    0.51163   1.00
H2       0.21700    0.62115    0.47854   1.00
H2       0.31491    0.78458    0.54819   1.00
H2       0.23885    0.55117    0.39567   1.00
H2       0.26459    0.79475    0.55155   1.00
H2       0.20278    0.54351    0.43155   1.00
H2       0.28200    0.74761    0.56255   1.00
H2       0.20820    0.58998    0.41018   1.00
C4       0.41040    0.91366    0.18475   1.00
C4       0.40986    0.91221    0.14309   1.00
C3       0.39808    0.94719    0.20603   1.00
C3       0.39320    0.94248    0.11996   1.00
C3       0.42373    0.88060    0.20646   1.00
C3       0.42644    0.87942    0.12330   1.00
C2       0.40966    0.91595    0.26905   1.00
C2       0.41047    0.91021    0.05878   1.00
C3       0.39751    0.94831    0.24689   1.00
C3       0.39363    0.94167    0.07909   1.00
C3       0.42248    0.88284    0.24804   1.00
C3       0.42649    0.87982    0.08164   1.00
H1       0.38942    0.97221    0.19263   1.00
H1       0.37978    0.96607    0.13194   1.00
C5       0.43802    0.84662    0.18665   1.00
C5       0.44218    0.84730    0.14502   1.00
H1       0.38815    0.97331    0.26049   1.00
H1       0.38127    0.96448    0.06409   1.00
H1       0.43147    0.85983    0.26448   1.00
H1       0.43825    0.85716    0.06652   1.00
C6       0.44810    0.81039    0.20985   1.00
C6       0.46332    0.81480    0.12381   1.00
H2       0.42541    0.80531    0.23155   1.00
H2       0.48254    0.82750    0.10190   1.00
H2       0.44600    0.78416    0.19214   1.00
H2       0.48405    0.80001    0.14272   1.00
C6       0.48963    0.81217    0.22894   1.00
C6       0.43506    0.78380    0.10558   1.00
H2       0.49412    0.84089    0.24208   1.00
H2       0.41078    0.79865    0.09117   1.00
C6       0.49978    0.78065    0.26041   1.00
C6       0.45279    0.75394    0.07589   1.00
H2       0.51117    0.81020    0.20551   1.00
H2       0.42185    0.76743    0.12954   1.00
C6       0.47448    0.78544    0.29765   1.00
C6       0.46664    0.77434    0.03792   1.00
C6       0.49475    0.73873    0.24426   1.00
C6       0.48730    0.73098    0.09393   1.00
C6       0.54313    0.78584    0.27255   1.00
C6       0.42062    0.72414    0.06446   1.00
H2       0.47690    0.81496    0.30942   1.00
H2       0.44310    0.79134    0.02480   1.00
H2       0.44379    0.77978    0.29170   1.00
H2       0.49098    0.79400    0.04346   1.00
H2       0.48360    0.76512    0.32041   1.00
H2       0.47643    0.75303    0.01637   1.00
H2       0.50454    0.71706    0.26545   1.00
H2       0.49762    0.70835    0.07402   1.00
H2       0.46422    0.73261    0.23775   1.00
H2       0.51185    0.75025    0.10006   1.00
H2       0.51163    0.73483    0.21755   1.00
H2       0.47854    0.71700    0.12115   1.00
H2       0.54819    0.81491    0.28458   1.00
H2       0.39567    0.73885    0.05117   1.00
H2       0.55155    0.76459    0.29475   1.00
H2       0.43155    0.70278    0.04351   1.00
H2       0.56255    0.78200    0.24761   1.00
H2       0.41018    0.70820    0.08998   1.00
C4       0.91040    0.41634    0.64525   1.00
C4       0.90986    0.41779    0.68691   1.00
C3       0.89808    0.38281    0.62397   1.00
C3       0.89320    0.38752    0.71004   1.00
C3       0.92373    0.44940    0.62354   1.00
C3       0.92644    0.45058    0.70670   1.00
C2       0.90966    0.41405    0.56095   1.00
C2       0.91047    0.41979    0.77122   1.00
C3       0.89751    0.38169    0.58311   1.00
C3       0.89363    0.38833    0.75091   1.00
C3       0.92248    0.44716    0.58196   1.00
C3       0.92649    0.45018    0.74836   1.00
H1       0.88942    0.35779    0.63737   1.00
H1       0.87978    0.36393    0.69806   1.00
C5       0.93802    0.48338    0.64335   1.00
C5       0.94218    0.48270    0.68498   1.00
H1       0.88815    0.35669    0.56951   1.00
H1       0.88127    0.36552    0.76591   1.00
H1       0.93147    0.47017    0.56552   1.00
H1       0.93825    0.47284    0.76348   1.00
C6       0.94810    0.51961    0.62015   1.00
C6       0.96332    0.51520    0.70619   1.00
H2       0.92541    0.52469    0.59845   1.00
H2       0.98254    0.50250    0.72810   1.00
H2       0.94600    0.54584    0.63786   1.00
H2       0.98405    0.52999    0.68728   1.00
C6       0.98963    0.51783    0.60106   1.00
C6       0.93506    0.54620    0.72442   1.00
H2       0.99412    0.48911    0.58792   1.00
H2       0.91078    0.53135    0.73883   1.00
C6       0.99978    0.54935    0.56959   1.00
C6       0.95279    0.57606    0.75411   1.00
H2       1.01117    0.51980    0.62449   1.00
H2       0.92185    0.56257    0.70046   1.00
C6       0.97448    0.54456    0.53235   1.00
C6       0.96664    0.55566    0.79208   1.00
C6       0.99475    0.59127    0.58574   1.00
C6       0.98730    0.59902    0.73607   1.00
C6       1.04313    0.54416    0.55745   1.00
C6       0.92062    0.60586    0.76554   1.00
H2       0.97690    0.51504    0.52058   1.00
H2       0.94310    0.53866    0.80520   1.00
H2       0.94379    0.55022    0.53830   1.00
H2       0.99098    0.53600    0.78654   1.00
H2       0.98360    0.56488    0.50959   1.00
H2       0.97643    0.57697    0.81363   1.00
H2       1.00454    0.61294    0.56455   1.00
H2       0.99762    0.62165    0.75598   1.00
H2       0.96422    0.59739    0.59225   1.00
H2       1.01185    0.57975    0.72994   1.00
H2       1.01163    0.59517    0.61245   1.00
H2       0.97854    0.61300    0.70885   1.00
H2       1.04819    0.51509    0.54542   1.00
H2       0.89567    0.59115    0.77883   1.00
H2       1.05155    0.56541    0.53525   1.00
H2       0.93155    0.62722    0.78649   1.00
H2       1.06255    0.54800    0.58239   1.00
H2       0.91018    0.62180    0.74002   1.00
C4       0.91634    0.64525    0.41040   1.00
C4       0.91779    0.68691    0.40986   1.00
C3       0.88281    0.62397    0.39808   1.00
C3       0.88752    0.71004    0.39320   1.00
C3       0.94940    0.62354    0.42373   1.00
C3       0.95058    0.70670    0.42644   1.00
C2       0.91405    0.56095    0.40966   1.00
C2       0.91979    0.77122    0.41047   1.00
C3       0.88169    0.58311    0.39751   1.00
C3       0.88833    0.75091    0.39363   1.00
C3       0.94716    0.58196    0.42248   1.00
C3       0.95018    0.74836    0.42649   1.00
H1       0.85779    0.63737    0.38942   1.00
H1       0.86393    0.69806    0.37978   1.00
C5       0.98338    0.64335    0.43802   1.00
C5       0.98270    0.68498    0.44218   1.00
H1       0.85669    0.56951    0.38815   1.00
H1       0.86552    0.76591    0.38127   1.00
H1       0.97017    0.56552    0.43147   1.00
H1       0.97284    0.76348    0.43825   1.00
C6       1.01961    0.62015    0.44810   1.00
C6       1.01520    0.70619    0.46332   1.00
H2       1.02469    0.59845    0.42541   1.00
H2       1.00250    0.72810    0.48254   1.00
H2       1.04584    0.63786    0.44600   1.00
H2       1.02999    0.68728    0.48405   1.00
C6       1.01783    0.60106    0.48963   1.00
C6       1.04620    0.72442    0.43506   1.00
H2       0.98911    0.58792    0.49412   1.00
H2       1.03135    0.73883    0.41078   1.00
C6       1.04935    0.56959    0.49978   1.00
C6       1.07606    0.75411    0.45279   1.00
H2       1.01980    0.62449    0.51117   1.00
H2       1.06257    0.70046    0.42185   1.00
C6       1.04456    0.53235    0.47448   1.00
C6       1.05566    0.79208    0.46664   1.00
C6       1.09127    0.58574    0.49475   1.00
C6       1.09902    0.73607    0.48730   1.00
C6       1.04416    0.55745    0.54313   1.00
C6       1.10586    0.76554    0.42062   1.00
H2       1.01504    0.52058    0.47690   1.00
H2       1.03866    0.80520    0.44310   1.00
H2       1.05022    0.53830    0.44379   1.00
H2       1.03600    0.78654    0.49098   1.00
H2       1.06488    0.50959    0.48360   1.00
H2       1.07697    0.81363    0.47643   1.00
H2       1.11294    0.56455    0.50454   1.00
H2       1.12165    0.75598    0.49762   1.00
H2       1.09739    0.59225    0.46422   1.00
H2       1.07975    0.72994    0.51185   1.00
H2       1.09517    0.61245    0.51163   1.00
H2       1.11300    0.70885    0.47854   1.00
H2       1.01509    0.54542    0.54819   1.00
H2       1.09115    0.77883    0.39567   1.00
H2       1.06541    0.53525    0.55155   1.00
H2       1.12722    0.78649    0.43155   1.00
H2       1.04800    0.58239    0.56255   1.00
H2       1.12180    0.74002    0.41018   1.00
C4       0.68475    0.41040    0.41366   1.00
C4       0.64309    0.40986    0.41221   1.00
C3       0.70603    0.39808    0.44719   1.00
C3       0.61996    0.39320    0.44248   1.00
C3       0.70646    0.42373    0.38060   1.00
C3       0.62330    0.42644    0.37942   1.00
C2       0.76905    0.40966    0.41595   1.00
C2       0.55878    0.41047    0.41021   1.00
C3       0.74689    0.39751    0.44831   1.00
C3       0.57909    0.39363    0.44167   1.00
C3       0.74804    0.42248    0.38284   1.00
C3       0.58164    0.42649    0.37982   1.00
H1       0.69263    0.38942    0.47221   1.00
H1       0.63194    0.37978    0.46607   1.00
C5       0.68665    0.43802    0.34662   1.00
C5       0.64502    0.44218    0.34730   1.00
H1       0.76049    0.38815    0.47331   1.00
H1       0.56409    0.38127    0.46448   1.00
H1       0.76448    0.43147    0.35983   1.00
H1       0.56652    0.43825    0.35716   1.00
C6       0.70985    0.44810    0.31039   1.00
C6       0.62381    0.46332    0.31480   1.00
H2       0.73155    0.42541    0.30531   1.00
H2       0.60190    0.48254    0.32750   1.00
H2       0.69214    0.44600    0.28416   1.00
H2       0.64272    0.48405    0.30001   1.00
C6       0.72894    0.48963    0.31217   1.00
C6       0.60558    0.43506    0.28380   1.00
H2       0.74208    0.49412    0.34089   1.00
H2       0.59117    0.41078    0.29865   1.00
C6       0.76041    0.49978    0.28065   1.00
C6       0.57589    0.45279    0.25394   1.00
H2       0.70551    0.51117    0.31020   1.00
H2       0.62954    0.42185    0.26743   1.00
C6       0.79765    0.47448    0.28544   1.00
C6       0.53792    0.46664    0.27434   1.00
C6       0.74426    0.49475    0.23873   1.00
C6       0.59393    0.48730    0.23098   1.00
C6       0.77255    0.54313    0.28584   1.00
C6       0.56446    0.42062    0.22414   1.00
H2       0.80942    0.47690    0.31496   1.00
H2       0.52480    0.44310    0.29134   1.00
H2       0.79170    0.44379    0.27978   1.00
H2       0.54346    0.49098    0.29400   1.00
H2       0.82041    0.48360    0.26512   1.00
H2       0.51637    0.47643    0.25303   1.00
H2       0.76545    0.50454    0.21706   1.00
H2       0.57402    0.49762    0.20835   1.00
H2       0.73775    0.46422    0.23261   1.00
H2       0.60006    0.51185    0.25025   1.00
H2       0.71755    0.51163    0.23483   1.00
H2       0.62115    0.47854    0.21700   1.00
H2       0.78458    0.54819    0.31491   1.00
H2       0.55117    0.39567    0.23885   1.00
H2       0.79475    0.55155    0.26459   1.00
H2       0.54351    0.43155    0.20278   1.00
H2       0.74761    0.56255    0.28200   1.00
H2       0.58998    0.41018    0.20820   1.00
C4       1.14525    0.41040    0.41634   1.00
C4       1.18691    0.40986    0.41779   1.00
C3       1.12397    0.39808    0.38281   1.00
C3       1.21004    0.39320    0.38752   1.00
C3       1.12354    0.42373    0.44940   1.00
C3       1.20670    0.42644    0.45058   1.00
C2       1.06095    0.40966    0.41405   1.00
C2       1.27122    0.41047    0.41979   1.00
C3       1.08311    0.39751    0.38169   1.00
C3       1.25091    0.39363    0.38833   1.00
C3       1.08196    0.42248    0.44716   1.00
C3       1.24836    0.42649    0.45018   1.00
H1       1.13737    0.38942    0.35779   1.00
H1       1.19806    0.37978    0.36393   1.00
C5       1.14335    0.43802    0.48338   1.00
C5       1.18498    0.44218    0.48270   1.00
H1       1.06951    0.38815    0.35669   1.00
H1       1.26591    0.38127    0.36552   1.00
H1       1.06552    0.43147    0.47017   1.00
H1       1.26348    0.43825    0.47284   1.00
C6       1.12015    0.44810    0.51961   1.00
C6       1.20619    0.46332    0.51520   1.00
H2       1.09845    0.42541    0.52469   1.00
H2       1.22810    0.48254    0.50250   1.00
H2       1.13786    0.44600    0.54584   1.00
H2       1.18728    0.48405    0.52999   1.00
C6       1.10106    0.48963    0.51783   1.00
C6       1.22442    0.43506    0.54620   1.00
H2       1.08792    0.49412    0.48911   1.00
H2       1.23883    0.41078    0.53135   1.00
C6       1.06959    0.49978    0.54935   1.00
C6       1.25411    0.45279    0.57606   1.00
H2       1.12449    0.51117    0.51980   1.00
H2       1.20046    0.42185    0.56257   1.00
C6       1.03235    0.47448    0.54456   1.00
C6       1.29208    0.46664    0.55566   1.00
C6       1.08574    0.49475    0.59127   1.00
C6       1.23607    0.48730    0.59902   1.00
C6       1.05745    0.54313    0.54416   1.00
C6       1.26554    0.42062    0.60586   1.00
H2       1.02058    0.47690    0.51504   1.00
H2       1.30520    0.44310    0.53866   1.00
H2       1.03830    0.44379    0.55022   1.00
H2       1.28654    0.49098    0.53600   1.00
H2       1.00959    0.48360    0.56488   1.00
H2       1.31363    0.47643    0.57697   1.00
H2       1.06455    0.50454    0.61294   1.00
H2       1.25598    0.49762    0.62165   1.00
H2       1.09225    0.46422    0.59739   1.00
H2       1.22994    0.51185    0.57975   1.00
H2       1.11245    0.51163    0.59517   1.00
H2       1.20885    0.47854    0.61300   1.00
H2       1.04542    0.54819    0.51509   1.00
H2       1.27883    0.39567    0.59115   1.00
H2       1.03525    0.55155    0.56541   1.00
H2       1.28649    0.43155    0.62722   1.00
H2       1.08239    0.56255    0.54800   1.00
H2       1.24002    0.41018    0.62180   1.00
C4       0.91366    0.18475    0.41040   1.00
C4       0.91221    0.14309    0.40986   1.00
C3       0.94719    0.20603    0.39808   1.00
C3       0.94248    0.11996    0.39320   1.00
C3       0.88060    0.20646    0.42373   1.00
C3       0.87942    0.12330    0.42644   1.00
C2       0.91595    0.26905    0.40966   1.00
C2       0.91021    0.05878    0.41047   1.00
C3       0.94831    0.24689    0.39751   1.00
C3       0.94167    0.07909    0.39363   1.00
C3       0.88284    0.24804    0.42248   1.00
C3       0.87982    0.08164    0.42649   1.00
H1       0.97221    0.19263    0.38942   1.00
H1       0.96607    0.13194    0.37978   1.00
C5       0.84662    0.18665    0.43802   1.00
C5       0.84730    0.14502    0.44218   1.00
H1       0.97331    0.26049    0.38815   1.00
H1       0.96448    0.06409    0.38127   1.00
H1       0.85983    0.26448    0.43147   1.00
H1       0.85716    0.06652    0.43825   1.00
C6       0.81039    0.20985    0.44810   1.00
C6       0.81480    0.12381    0.46332   1.00
H2       0.80531    0.23155    0.42541   1.00
H2       0.82750    0.10190    0.48254   1.00
H2       0.78416    0.19214    0.44600   1.00
H2       0.80001    0.14272    0.48405   1.00
C6       0.81217    0.22894    0.48963   1.00
C6       0.78380    0.10558    0.43506   1.00
H2       0.84089    0.24208    0.49412   1.00
H2       0.79865    0.09117    0.41078   1.00
C6       0.78065    0.26041    0.49978   1.00
C6       0.75394    0.07589    0.45279   1.00
H2       0.81020    0.20551    0.51117   1.00
H2       0.76743    0.12954    0.42185   1.00
C6       0.78544    0.29765    0.47448   1.00
C6       0.77434    0.03792    0.46664   1.00
C6       0.73873    0.24426    0.49475   1.00
C6       0.73098    0.09393    0.48730   1.00
C6       0.78584    0.27255    0.54313   1.00
C6       0.72414    0.06446    0.42062   1.00
H2       0.81496    0.30942    0.47690   1.00
H2       0.79134    0.02480    0.44310   1.00
H2       0.77978    0.29170    0.44379   1.00
H2       0.79400    0.04346    0.49098   1.00
H2       0.76512    0.32041    0.48360   1.00
H2       0.75303    0.01637    0.47643   1.00
H2       0.71706    0.26545    0.50454   1.00
H2       0.70835    0.07402    0.49762   1.00
H2       0.73261    0.23775    0.46422   1.00
H2       0.75025    0.10006    0.51185   1.00
H2       0.73483    0.21755    0.51163   1.00
H2       0.71700    0.12115    0.47854   1.00
H2       0.81491    0.28458    0.54819   1.00
H2       0.73885    0.05117    0.39567   1.00
H2       0.76459    0.29475    0.55155   1.00
H2       0.70278    0.04351    0.43155   1.00
H2       0.78200    0.24761    0.56255   1.00
H2       0.70820    0.08998    0.41018   1.00
C4       0.91040    0.41366    0.18475   1.00
C4       0.90986    0.41221    0.14309   1.00
C3       0.89808    0.44719    0.20603   1.00
C3       0.89320    0.44248    0.11996   1.00
C3       0.92373    0.38060    0.20646   1.00
C3       0.92644    0.37942    0.12330   1.00
C2       0.90966    0.41595    0.26905   1.00
C2       0.91047    0.41021    0.05878   1.00
C3       0.89751    0.44831    0.24689   1.00
C3       0.89363    0.44167    0.07909   1.00
C3       0.92248    0.38284    0.24804   1.00
C3       0.92649    0.37982    0.08164   1.00
H1       0.88942    0.47221    0.19263   1.00
H1       0.87978    0.46607    0.13194   1.00
C5       0.93802    0.34662    0.18665   1.00
C5       0.94218    0.34730    0.14502   1.00
H1       0.88815    0.47331    0.26049   1.00
H1       0.88127    0.46448    0.06409   1.00
H1       0.93147    0.35983    0.26448   1.00
H1       0.93825    0.35716    0.06652   1.00
C6       0.94810    0.31039    0.20985   1.00
C6       0.96332    0.31480    0.12381   1.00
H2       0.92541    0.30531    0.23155   1.00
H2       0.98254    0.32750    0.10190   1.00
H2       0.94600    0.28416    0.19214   1.00
H2       0.98405    0.30001    0.14272   1.00
C6       0.98963    0.31217    0.22894   1.00
C6       0.93506    0.28380    0.10558   1.00
H2       0.99412    0.34089    0.24208   1.00
H2       0.91078    0.29865    0.09117   1.00
C6       0.99978    0.28065    0.26041   1.00
C6       0.95279    0.25394    0.07589   1.00
H2       1.01117    0.31020    0.20551   1.00
H2       0.92185    0.26743    0.12954   1.00
C6       0.97448    0.28544    0.29765   1.00
C6       0.96664    0.27434    0.03792   1.00
C6       0.99475    0.23873    0.24426   1.00
C6       0.98730    0.23098    0.09393   1.00
C6       1.04313    0.28584    0.27255   1.00
C6       0.92062    0.22414    0.06446   1.00
H2       0.97690    0.31496    0.30942   1.00
H2       0.94310    0.29134    0.02480   1.00
H2       0.94379    0.27978    0.29170   1.00
H2       0.99098    0.29400    0.04346   1.00
H2       0.98360    0.26512    0.32041   1.00
H2       0.97643    0.25303    0.01637   1.00
H2       1.00454    0.21706    0.26545   1.00
H2       0.99762    0.20835    0.07402   1.00
H2       0.96422    0.23261    0.23775   1.00
H2       1.01185    0.25025    0.10006   1.00
H2       1.01163    0.23483    0.21755   1.00
H2       0.97854    0.21700    0.12115   1.00
H2       1.04819    0.31491    0.28458   1.00
H2       0.89567    0.23885    0.05117   1.00
H2       1.05155    0.26459    0.29475   1.00
H2       0.93155    0.20278    0.04351   1.00
H2       1.06255    0.28200    0.24761   1.00
H2       0.91018    0.20820    0.08998   1.00
