data_IRMOF10_SG202_interpen_Ligand11cp_label_s.

_audit_creation_method             'generated by an auxiliary program of Tobunporous'

_symmetry_space_group_name_H-M     'P 1'
_symmetry_Int_Tables_number        1
_symmetry_cell_setting             triclinic

_cell_length_a                    34.2800
_cell_length_b                    34.2800
_cell_length_c                    34.2800
_cell_angle_alpha                 90.0000
_cell_angle_beta                  90.0000
_cell_angle_gamma                 90.0000

loop_
_atom_site_label
_atom_site_fract_x
_atom_site_fract_y
_atom_site_fract_z
_atom_site_occupancy
O1       0.75000    0.75000    0.75000   1.00
Zn1      0.71720    0.78280    0.78280   1.00
Zn1      0.78280    0.71720    0.78280   1.00
Zn1      0.78280    0.78280    0.71720   1.00
Zn1      0.71720    0.71720    0.71720   1.00
O2       0.72650    0.77350    0.83820   1.00
O2       0.72650    0.83820    0.77350   1.00
O2       0.66180    0.77350    0.77350   1.00
O2       0.77350    0.72650    0.83820   1.00
O2       0.83820    0.72650    0.77350   1.00
O2       0.77350    0.66180    0.77350   1.00
O2       0.77350    0.83820    0.72650   1.00
O2       0.83820    0.77350    0.72650   1.00
O2       0.77350    0.77350    0.66180   1.00
O2       0.66180    0.72650    0.72650   1.00
O2       0.72650    0.66180    0.72650   1.00
O2       0.72650    0.72650    0.66180   1.00
C1       0.75000    0.75000    0.85520   1.00
C1       0.75000    0.85520    0.75000   1.00
C1       0.64480    0.75000    0.75000   1.00
C1       0.85520    0.75000    0.75000   1.00
C1       0.75000    0.64480    0.75000   1.00
C1       0.75000    0.75000    0.64480   1.00
O1       0.25000    0.25000    0.75000   1.00
Zn1      0.21720    0.28280    0.78280   1.00
Zn1      0.28280    0.21720    0.78280   1.00
Zn1      0.28280    0.28280    0.71720   1.00
Zn1      0.21720    0.21720    0.71720   1.00
O2       0.22650    0.27350    0.83820   1.00
O2       0.22650    0.33820    0.77350   1.00
O2       0.16180    0.27350    0.77350   1.00
O2       0.27350    0.22650    0.83820   1.00
O2       0.33820    0.22650    0.77350   1.00
O2       0.27350    0.16180    0.77350   1.00
O2       0.27350    0.33820    0.72650   1.00
O2       0.33820    0.27350    0.72650   1.00
O2       0.27350    0.27350    0.66180   1.00
O2       0.16180    0.22650    0.72650   1.00
O2       0.22650    0.16180    0.72650   1.00
O2       0.22650    0.22650    0.66180   1.00
C1       0.25000    0.25000    0.85520   1.00
C1       0.25000    0.35520    0.75000   1.00
C1       0.14480    0.25000    0.75000   1.00
C1       0.35520    0.25000    0.75000   1.00
C1       0.25000    0.14480    0.75000   1.00
C1       0.25000    0.25000    0.64480   1.00
O1       0.25000    0.75000    0.25000   1.00
Zn1      0.21720    0.78280    0.28280   1.00
Zn1      0.28280    0.71720    0.28280   1.00
Zn1      0.28280    0.78280    0.21720   1.00
Zn1      0.21720    0.71720    0.21720   1.00
O2       0.22650    0.77350    0.33820   1.00
O2       0.22650    0.83820    0.27350   1.00
O2       0.16180    0.77350    0.27350   1.00
O2       0.27350    0.72650    0.33820   1.00
O2       0.33820    0.72650    0.27350   1.00
O2       0.27350    0.66180    0.27350   1.00
O2       0.27350    0.83820    0.22650   1.00
O2       0.33820    0.77350    0.22650   1.00
O2       0.27350    0.77350    0.16180   1.00
O2       0.16180    0.72650    0.22650   1.00
O2       0.22650    0.66180    0.22650   1.00
O2       0.22650    0.72650    0.16180   1.00
C1       0.25000    0.75000    0.35520   1.00
C1       0.25000    0.85520    0.25000   1.00
C1       0.14480    0.75000    0.25000   1.00
C1       0.35520    0.75000    0.25000   1.00
C1       0.25000    0.64480    0.25000   1.00
C1       0.25000    0.75000    0.14480   1.00
O1       0.75000    0.25000    0.25000   1.00
Zn1      0.71720    0.28280    0.28280   1.00
Zn1      0.78280    0.21720    0.28280   1.00
Zn1      0.78280    0.28280    0.21720   1.00
Zn1      0.71720    0.21720    0.21720   1.00
O2       0.72650    0.27350    0.33820   1.00
O2       0.72650    0.33820    0.27350   1.00
O2       0.66180    0.27350    0.27350   1.00
O2       0.77350    0.22650    0.33820   1.00
O2       0.83820    0.22650    0.27350   1.00
O2       0.77350    0.16180    0.27350   1.00
O2       0.77350    0.33820    0.22650   1.00
O2       0.83820    0.27350    0.22650   1.00
O2       0.77350    0.27350    0.16180   1.00
O2       0.66180    0.22650    0.22650   1.00
O2       0.72650    0.16180    0.22650   1.00
O2       0.72650    0.22650    0.16180   1.00
C1       0.75000    0.25000    0.35520   1.00
C1       0.75000    0.35520    0.25000   1.00
C1       0.64480    0.25000    0.25000   1.00
C1       0.85520    0.25000    0.25000   1.00
C1       0.75000    0.14480    0.25000   1.00
C1       0.75000    0.25000    0.14480   1.00
O1       0.25000    0.25000    0.25000   1.00
Zn1      0.28280    0.21720    0.21720   1.00
Zn1      0.21720    0.28280    0.21720   1.00
Zn1      0.21720    0.21720    0.28280   1.00
Zn1      0.28280    0.28280    0.28280   1.00
O2       0.27350    0.22650    0.16180   1.00
O2       0.27350    0.16180    0.22650   1.00
O2       0.33820    0.22650    0.22650   1.00
O2       0.22650    0.27350    0.16180   1.00
O2       0.16180    0.27350    0.22650   1.00
O2       0.22650    0.33820    0.22650   1.00
O2       0.22650    0.16180    0.27350   1.00
O2       0.16180    0.22650    0.27350   1.00
O2       0.22650    0.22650    0.33820   1.00
O2       0.33820    0.27350    0.27350   1.00
O2       0.27350    0.33820    0.27350   1.00
O2       0.27350    0.27350    0.33820   1.00
C1       0.25000    0.25000    0.14480   1.00
C1       0.25000    0.14480    0.25000   1.00
C1       0.35520    0.25000    0.25000   1.00
C1       0.14480    0.25000    0.25000   1.00
C1       0.25000    0.35520    0.25000   1.00
C1       0.25000    0.25000    0.35520   1.00
O1       0.75000    0.75000    0.25000   1.00
Zn1      0.78280    0.71720    0.21720   1.00
Zn1      0.71720    0.78280    0.21720   1.00
Zn1      0.71720    0.71720    0.28280   1.00
Zn1      0.78280    0.78280    0.28280   1.00
O2       0.77350    0.72650    0.16180   1.00
O2       0.77350    0.66180    0.22650   1.00
O2       0.83820    0.72650    0.22650   1.00
O2       0.72650    0.77350    0.16180   1.00
O2       0.66180    0.77350    0.22650   1.00
O2       0.72650    0.83820    0.22650   1.00
O2       0.72650    0.66180    0.27350   1.00
O2       0.66180    0.72650    0.27350   1.00
O2       0.72650    0.72650    0.33820   1.00
O2       0.83820    0.77350    0.27350   1.00
O2       0.77350    0.83820    0.27350   1.00
O2       0.77350    0.77350    0.33820   1.00
C1       0.75000    0.75000    0.14480   1.00
C1       0.75000    0.64480    0.25000   1.00
C1       0.85520    0.75000    0.25000   1.00
C1       0.64480    0.75000    0.25000   1.00
C1       0.75000    0.85520    0.25000   1.00
C1       0.75000    0.75000    0.35520   1.00
O1       0.75000    0.25000    0.75000   1.00
Zn1      0.78280    0.21720    0.71720   1.00
Zn1      0.71720    0.28280    0.71720   1.00
Zn1      0.71720    0.21720    0.78280   1.00
Zn1      0.78280    0.28280    0.78280   1.00
O2       0.77350    0.22650    0.66180   1.00
O2       0.77350    0.16180    0.72650   1.00
O2       0.83820    0.22650    0.72650   1.00
O2       0.72650    0.27350    0.66180   1.00
O2       0.66180    0.27350    0.72650   1.00
O2       0.72650    0.33820    0.72650   1.00
O2       0.72650    0.16180    0.77350   1.00
O2       0.66180    0.22650    0.77350   1.00
O2       0.72650    0.22650    0.83820   1.00
O2       0.83820    0.27350    0.77350   1.00
O2       0.77350    0.33820    0.77350   1.00
O2       0.77350    0.27350    0.83820   1.00
C1       0.75000    0.25000    0.64480   1.00
C1       0.75000    0.14480    0.75000   1.00
C1       0.85520    0.25000    0.75000   1.00
C1       0.64480    0.25000    0.75000   1.00
C1       0.75000    0.35520    0.75000   1.00
C1       0.75000    0.25000    0.85520   1.00
O1       0.25000    0.75000    0.75000   1.00
Zn1      0.28280    0.71720    0.71720   1.00
Zn1      0.21720    0.78280    0.71720   1.00
Zn1      0.21720    0.71720    0.78280   1.00
Zn1      0.28280    0.78280    0.78280   1.00
O2       0.27350    0.72650    0.66180   1.00
O2       0.27350    0.66180    0.72650   1.00
O2       0.33820    0.72650    0.72650   1.00
O2       0.22650    0.77350    0.66180   1.00
O2       0.16180    0.77350    0.72650   1.00
O2       0.22650    0.83820    0.72650   1.00
O2       0.22650    0.66180    0.77350   1.00
O2       0.16180    0.72650    0.77350   1.00
O2       0.22650    0.72650    0.83820   1.00
O2       0.33820    0.77350    0.77350   1.00
O2       0.27350    0.83820    0.77350   1.00
O2       0.27350    0.77350    0.83820   1.00
C1       0.25000    0.75000    0.64480   1.00
C1       0.25000    0.64480    0.75000   1.00
C1       0.35520    0.75000    0.75000   1.00
C1       0.14480    0.75000    0.75000   1.00
C1       0.25000    0.85520    0.75000   1.00
C1       0.25000    0.75000    0.85520   1.00
O1       0.91500    0.91500    0.91500   1.00
Zn1      0.88220    0.94780    0.94780   1.00
Zn1      0.94780    0.88220    0.94780   1.00
Zn1      0.94780    0.94780    0.88220   1.00
Zn1      0.88220    0.88220    0.88220   1.00
O2       0.89150    0.93850    1.00320   1.00
O2       0.89150    1.00320    0.93850   1.00
O2       0.82680    0.93850    0.93850   1.00
O2       0.93850    0.89150    1.00320   1.00
O2       1.00320    0.89150    0.93850   1.00
O2       0.93850    0.82680    0.93850   1.00
O2       0.93850    1.00320    0.89150   1.00
O2       1.00320    0.93850    0.89150   1.00
O2       0.93850    0.93850    0.82680   1.00
O2       0.82680    0.89150    0.89150   1.00
O2       0.89150    0.82680    0.89150   1.00
O2       0.89150    0.89150    0.82680   1.00
C1       0.91500    0.91500    1.02020   1.00
C1       0.91500    1.02020    0.91500   1.00
C1       0.80980    0.91500    0.91500   1.00
C1       1.02020    0.91500    0.91500   1.00
C1       0.91500    0.80980    0.91500   1.00
C1       0.91500    0.91500    0.80980   1.00
O1       0.41500    0.41500    0.91500   1.00
Zn1      0.38220    0.44780    0.94780   1.00
Zn1      0.44780    0.38220    0.94780   1.00
Zn1      0.44780    0.44780    0.88220   1.00
Zn1      0.38220    0.38220    0.88220   1.00
O2       0.39150    0.43850    1.00320   1.00
O2       0.39150    0.50320    0.93850   1.00
O2       0.32680    0.43850    0.93850   1.00
O2       0.43850    0.39150    1.00320   1.00
O2       0.50320    0.39150    0.93850   1.00
O2       0.43850    0.32680    0.93850   1.00
O2       0.43850    0.50320    0.89150   1.00
O2       0.50320    0.43850    0.89150   1.00
O2       0.43850    0.43850    0.82680   1.00
O2       0.32680    0.39150    0.89150   1.00
O2       0.39150    0.32680    0.89150   1.00
O2       0.39150    0.39150    0.82680   1.00
C1       0.41500    0.41500    1.02020   1.00
C1       0.41500    0.52020    0.91500   1.00
C1       0.30980    0.41500    0.91500   1.00
C1       0.52020    0.41500    0.91500   1.00
C1       0.41500    0.30980    0.91500   1.00
C1       0.41500    0.41500    0.80980   1.00
O1       0.41500    0.91500    0.41500   1.00
Zn1      0.38220    0.94780    0.44780   1.00
Zn1      0.44780    0.88220    0.44780   1.00
Zn1      0.44780    0.94780    0.38220   1.00
Zn1      0.38220    0.88220    0.38220   1.00
O2       0.39150    0.93850    0.50320   1.00
O2       0.39150    1.00320    0.43850   1.00
O2       0.32680    0.93850    0.43850   1.00
O2       0.43850    0.89150    0.50320   1.00
O2       0.50320    0.89150    0.43850   1.00
O2       0.43850    0.82680    0.43850   1.00
O2       0.43850    1.00320    0.39150   1.00
O2       0.50320    0.93850    0.39150   1.00
O2       0.43850    0.93850    0.32680   1.00
O2       0.32680    0.89150    0.39150   1.00
O2       0.39150    0.82680    0.39150   1.00
O2       0.39150    0.89150    0.32680   1.00
C1       0.41500    0.91500    0.52020   1.00
C1       0.41500    1.02020    0.41500   1.00
C1       0.30980    0.91500    0.41500   1.00
C1       0.52020    0.91500    0.41500   1.00
C1       0.41500    0.80980    0.41500   1.00
C1       0.41500    0.91500    0.30980   1.00
O1       0.91500    0.41500    0.41500   1.00
Zn1      0.88220    0.44780    0.44780   1.00
Zn1      0.94780    0.38220    0.44780   1.00
Zn1      0.94780    0.44780    0.38220   1.00
Zn1      0.88220    0.38220    0.38220   1.00
O2       0.89150    0.43850    0.50320   1.00
O2       0.89150    0.50320    0.43850   1.00
O2       0.82680    0.43850    0.43850   1.00
O2       0.93850    0.39150    0.50320   1.00
O2       1.00320    0.39150    0.43850   1.00
O2       0.93850    0.32680    0.43850   1.00
O2       0.93850    0.50320    0.39150   1.00
O2       1.00320    0.43850    0.39150   1.00
O2       0.93850    0.43850    0.32680   1.00
O2       0.82680    0.39150    0.39150   1.00
O2       0.89150    0.32680    0.39150   1.00
O2       0.89150    0.39150    0.32680   1.00
C1       0.91500    0.41500    0.52020   1.00
C1       0.91500    0.52020    0.41500   1.00
C1       0.80980    0.41500    0.41500   1.00
C1       1.02020    0.41500    0.41500   1.00
C1       0.91500    0.30980    0.41500   1.00
C1       0.91500    0.41500    0.30980   1.00
O1       0.41500    0.41500    0.41500   1.00
Zn1      0.44780    0.38220    0.38220   1.00
Zn1      0.38220    0.44780    0.38220   1.00
Zn1      0.38220    0.38220    0.44780   1.00
Zn1      0.44780    0.44780    0.44780   1.00
O2       0.43850    0.39150    0.32680   1.00
O2       0.43850    0.32680    0.39150   1.00
O2       0.50320    0.39150    0.39150   1.00
O2       0.39150    0.43850    0.32680   1.00
O2       0.32680    0.43850    0.39150   1.00
O2       0.39150    0.50320    0.39150   1.00
O2       0.39150    0.32680    0.43850   1.00
O2       0.32680    0.39150    0.43850   1.00
O2       0.39150    0.39150    0.50320   1.00
O2       0.50320    0.43850    0.43850   1.00
O2       0.43850    0.50320    0.43850   1.00
O2       0.43850    0.43850    0.50320   1.00
C1       0.41500    0.41500    0.30980   1.00
C1       0.41500    0.30980    0.41500   1.00
C1       0.52020    0.41500    0.41500   1.00
C1       0.30980    0.41500    0.41500   1.00
C1       0.41500    0.52020    0.41500   1.00
C1       0.41500    0.41500    0.52020   1.00
O1       0.91500    0.91500    0.41500   1.00
Zn1      0.94780    0.88220    0.38220   1.00
Zn1      0.88220    0.94780    0.38220   1.00
Zn1      0.88220    0.88220    0.44780   1.00
Zn1      0.94780    0.94780    0.44780   1.00
O2       0.93850    0.89150    0.32680   1.00
O2       0.93850    0.82680    0.39150   1.00
O2       1.00320    0.89150    0.39150   1.00
O2       0.89150    0.93850    0.32680   1.00
O2       0.82680    0.93850    0.39150   1.00
O2       0.89150    1.00320    0.39150   1.00
O2       0.89150    0.82680    0.43850   1.00
O2       0.82680    0.89150    0.43850   1.00
O2       0.89150    0.89150    0.50320   1.00
O2       1.00320    0.93850    0.43850   1.00
O2       0.93850    1.00320    0.43850   1.00
O2       0.93850    0.93850    0.50320   1.00
C1       0.91500    0.91500    0.30980   1.00
C1       0.91500    0.80980    0.41500   1.00
C1       1.02020    0.91500    0.41500   1.00
C1       0.80980    0.91500    0.41500   1.00
C1       0.91500    1.02020    0.41500   1.00
C1       0.91500    0.91500    0.52020   1.00
O1       0.91500    0.41500    0.91500   1.00
Zn1      0.94780    0.38220    0.88220   1.00
Zn1      0.88220    0.44780    0.88220   1.00
Zn1      0.88220    0.38220    0.94780   1.00
Zn1      0.94780    0.44780    0.94780   1.00
O2       0.93850    0.39150    0.82680   1.00
O2       0.93850    0.32680    0.89150   1.00
O2       1.00320    0.39150    0.89150   1.00
O2       0.89150    0.43850    0.82680   1.00
O2       0.82680    0.43850    0.89150   1.00
O2       0.89150    0.50320    0.89150   1.00
O2       0.89150    0.32680    0.93850   1.00
O2       0.82680    0.39150    0.93850   1.00
O2       0.89150    0.39150    1.00320   1.00
O2       1.00320    0.43850    0.93850   1.00
O2       0.93850    0.50320    0.93850   1.00
O2       0.93850    0.43850    1.00320   1.00
C1       0.91500    0.41500    0.80980   1.00
C1       0.91500    0.30980    0.91500   1.00
C1       1.02020    0.41500    0.91500   1.00
C1       0.80980    0.41500    0.91500   1.00
C1       0.91500    0.52020    0.91500   1.00
C1       0.91500    0.41500    1.02020   1.00
O1       0.41500    0.91500    0.91500   1.00
Zn1      0.44780    0.88220    0.88220   1.00
Zn1      0.38220    0.94780    0.88220   1.00
Zn1      0.38220    0.88220    0.94780   1.00
Zn1      0.44780    0.94780    0.94780   1.00
O2       0.43850    0.89150    0.82680   1.00
O2       0.43850    0.82680    0.89150   1.00
O2       0.50320    0.89150    0.89150   1.00
O2       0.39150    0.93850    0.82680   1.00
O2       0.32680    0.93850    0.89150   1.00
O2       0.39150    1.00320    0.89150   1.00
O2       0.39150    0.82680    0.93850   1.00
O2       0.32680    0.89150    0.93850   1.00
O2       0.39150    0.89150    1.00320   1.00
O2       0.50320    0.93850    0.93850   1.00
O2       0.43850    1.00320    0.93850   1.00
O2       0.43850    0.93850    1.00320   1.00
C1       0.41500    0.91500    0.80980   1.00
C1       0.41500    0.80980    0.91500   1.00
C1       0.52020    0.91500    0.91500   1.00
C1       0.30980    0.91500    0.91500   1.00
C1       0.41500    1.02020    0.91500   1.00
C1       0.41500    0.91500    1.02020   1.00
C4       0.74980    0.75003    0.97915   1.00
C4       0.75020    0.74997    1.02085   1.00
C3a      0.71935    0.73163    0.95746   1.00
C3       0.72694    0.77630    1.04232   1.00
C3       0.77967    0.76852    0.95768   1.00
C3a      0.77403    0.72356    1.04254   1.00
C2       0.75001    0.75008    0.89488   1.00
C2       0.75002    0.75008    1.10512   1.00
C3       0.71998    0.73189    0.91595   1.00
C3       0.72680    0.77624    1.08363   1.00
C3       0.77979    0.76842    0.91637   1.00
C3       0.77350    0.72399    1.08405   1.00
C5       0.68604    0.71091    0.97772   1.00
H1       0.70846    0.79679    1.02691   1.00
H1       0.69688    0.71769    0.89979   1.00
H1       0.70838    0.79676    1.09901   1.00
H1       0.80336    0.78274    0.90099   1.00
H1       0.79152    0.70372    1.10021   1.00
C5       0.79994    0.69409    1.02228   1.00
H1       0.80328    0.78280    0.97309   1.00
H2       0.80692    0.66980    1.04256   1.00
H2       0.78424    0.68068    0.99731   1.00
H2       0.67233    0.68967    0.95744   1.00
H2       0.69719    0.69353    1.00269   1.00
N1       0.83605    0.71232    1.00857   1.00
C6       0.86444    0.72725    1.03073   1.00
C6       0.84744    0.71620    0.97154   1.00
C6       0.89410    0.74133    1.00759   1.00
C6       0.88330    0.73430    0.96995   1.00
H3       0.86362    0.72825    1.06197   1.00
H3       0.83059    0.70676    0.94700   1.00
H3       0.92066    0.75515    1.01713   1.00
H3       0.89972    0.74158    0.94425   1.00
N1       0.65673    0.73879    0.99143   1.00
C6       0.64695    0.74580    1.02846   1.00
C6       0.63387    0.76129    0.96927   1.00
C6       0.61785    0.77348    1.03005   1.00
C6       0.60954    0.78334    0.99241   1.00
H3       0.66035    0.73189    1.05300   1.00
H3       0.63494    0.76201    0.93803   1.00
H3       0.60423    0.78520    1.05575   1.00
H3       0.58811    0.80424    0.98287   1.00
C4       0.75003    0.97915    0.74980   1.00
C4       0.74997    1.02085    0.75020   1.00
C3a      0.73163    0.95746    0.71935   1.00
C3       0.77630    1.04232    0.72694   1.00
C3       0.76852    0.95768    0.77967   1.00
C3a      0.72356    1.04254    0.77403   1.00
C2       0.75008    0.89488    0.75001   1.00
C2       0.75008    1.10512    0.75002   1.00
C3       0.73189    0.91595    0.71998   1.00
C3       0.77624    1.08363    0.72680   1.00
C3       0.76842    0.91637    0.77979   1.00
C3       0.72399    1.08405    0.77350   1.00
C5       0.71091    0.97772    0.68604   1.00
H1       0.79679    1.02691    0.70846   1.00
H1       0.71769    0.89979    0.69688   1.00
H1       0.79676    1.09901    0.70838   1.00
H1       0.78274    0.90099    0.80336   1.00
H1       0.70372    1.10021    0.79152   1.00
C5       0.69409    1.02228    0.79994   1.00
H1       0.78280    0.97309    0.80328   1.00
H2       0.66980    1.04256    0.80692   1.00
H2       0.68068    0.99731    0.78424   1.00
H2       0.68967    0.95744    0.67233   1.00
H2       0.69353    1.00269    0.69719   1.00
N1       0.71232    1.00857    0.83605   1.00
C6       0.72725    1.03073    0.86444   1.00
C6       0.71620    0.97154    0.84744   1.00
C6       0.74133    1.00759    0.89410   1.00
C6       0.73430    0.96995    0.88330   1.00
H3       0.72825    1.06197    0.86362   1.00
H3       0.70676    0.94700    0.83059   1.00
H3       0.75515    1.01713    0.92066   1.00
H3       0.74158    0.94425    0.89972   1.00
N1       0.73879    0.99143    0.65673   1.00
C6       0.74580    1.02846    0.64695   1.00
C6       0.76129    0.96927    0.63387   1.00
C6       0.77348    1.03005    0.61785   1.00
C6       0.78334    0.99241    0.60954   1.00
H3       0.73189    1.05300    0.66035   1.00
H3       0.76201    0.93803    0.63494   1.00
H3       0.78520    1.05575    0.60423   1.00
H3       0.80424    0.98287    0.58811   1.00
C4       0.52085    0.74980    0.74997   1.00
C4       0.47915    0.75020    0.75003   1.00
C3a      0.54254    0.71935    0.76837   1.00
C3       0.45768    0.72694    0.72370   1.00
C3       0.54232    0.77967    0.73148   1.00
C3a      0.45746    0.77403    0.77644   1.00
C2       0.60512    0.75001    0.74992   1.00
C2       0.39488    0.75002    0.74992   1.00
C3       0.58405    0.71998    0.76811   1.00
C3       0.41637    0.72680    0.72376   1.00
C3       0.58363    0.77979    0.73158   1.00
C3       0.41595    0.77350    0.77601   1.00
C5       0.52228    0.68604    0.78909   1.00
H1       0.47309    0.70846    0.70321   1.00
H1       0.60021    0.69688    0.78231   1.00
H1       0.40099    0.70838    0.70324   1.00
H1       0.59901    0.80336    0.71726   1.00
H1       0.39979    0.79152    0.79628   1.00
C5       0.47772    0.79994    0.80591   1.00
H1       0.52691    0.80328    0.71720   1.00
H2       0.45744    0.80692    0.83020   1.00
H2       0.50269    0.78424    0.81932   1.00
H2       0.54256    0.67233    0.81033   1.00
H2       0.49731    0.69719    0.80647   1.00
N1       0.49143    0.83605    0.78768   1.00
C6       0.46927    0.86444    0.77275   1.00
C6       0.52846    0.84744    0.78380   1.00
C6       0.49241    0.89410    0.75867   1.00
C6       0.53005    0.88330    0.76570   1.00
H3       0.43803    0.86362    0.77175   1.00
H3       0.55300    0.83059    0.79324   1.00
H3       0.48287    0.92066    0.74485   1.00
H3       0.55575    0.89972    0.75842   1.00
N1       0.50857    0.65673    0.76121   1.00
C6       0.47154    0.64695    0.75420   1.00
C6       0.53073    0.63387    0.73871   1.00
C6       0.46995    0.61785    0.72652   1.00
C6       0.50759    0.60954    0.71666   1.00
H3       0.44700    0.66035    0.76811   1.00
H3       0.56197    0.63494    0.73799   1.00
H3       0.44425    0.60423    0.71480   1.00
H3       0.51713    0.58811    0.69576   1.00
C4       0.97915    0.74980    0.75003   1.00
C4       1.02085    0.75020    0.74997   1.00
C3a      0.95746    0.71935    0.73163   1.00
C3       1.04232    0.72694    0.77630   1.00
C3       0.95768    0.77967    0.76852   1.00
C3a      1.04254    0.77403    0.72356   1.00
C2       0.89488    0.75001    0.75008   1.00
C2       1.10512    0.75002    0.75008   1.00
C3       0.91595    0.71998    0.73189   1.00
C3       1.08363    0.72680    0.77624   1.00
C3       0.91637    0.77979    0.76842   1.00
C3       1.08405    0.77350    0.72399   1.00
C5       0.97772    0.68604    0.71091   1.00
H1       1.02691    0.70846    0.79679   1.00
H1       0.89979    0.69688    0.71769   1.00
H1       1.09901    0.70838    0.79676   1.00
H1       0.90099    0.80336    0.78274   1.00
H1       1.10021    0.79152    0.70372   1.00
C5       1.02228    0.79994    0.69409   1.00
H1       0.97309    0.80328    0.78280   1.00
H2       1.04256    0.80692    0.66980   1.00
H2       0.99731    0.78424    0.68068   1.00
H2       0.95744    0.67233    0.68967   1.00
H2       1.00269    0.69719    0.69353   1.00
N1       1.00857    0.83605    0.71232   1.00
C6       1.03073    0.86444    0.72725   1.00
C6       0.97154    0.84744    0.71620   1.00
C6       1.00759    0.89410    0.74133   1.00
C6       0.96995    0.88330    0.73430   1.00
H3       1.06197    0.86362    0.72825   1.00
H3       0.94700    0.83059    0.70676   1.00
H3       1.01713    0.92066    0.75515   1.00
H3       0.94425    0.89972    0.74158   1.00
N1       0.99143    0.65673    0.73879   1.00
C6       1.02846    0.64695    0.74580   1.00
C6       0.96927    0.63387    0.76129   1.00
C6       1.03005    0.61785    0.77348   1.00
C6       0.99241    0.60954    0.78334   1.00
H3       1.05300    0.66035    0.73189   1.00
H3       0.93803    0.63494    0.76201   1.00
H3       1.05575    0.60423    0.78520   1.00
H3       0.98287    0.58811    0.80424   1.00
C4       0.74997    0.52085    0.74980   1.00
C4       0.75003    0.47915    0.75020   1.00
C3a      0.76837    0.54254    0.71935   1.00
C3       0.72370    0.45768    0.72694   1.00
C3       0.73148    0.54232    0.77967   1.00
C3a      0.77644    0.45746    0.77403   1.00
C2       0.74992    0.60512    0.75001   1.00
C2       0.74992    0.39488    0.75002   1.00
C3       0.76811    0.58405    0.71998   1.00
C3       0.72376    0.41637    0.72680   1.00
C3       0.73158    0.58363    0.77979   1.00
C3       0.77601    0.41595    0.77350   1.00
C5       0.78909    0.52228    0.68604   1.00
H1       0.70321    0.47309    0.70846   1.00
H1       0.78231    0.60021    0.69688   1.00
H1       0.70324    0.40099    0.70838   1.00
H1       0.71726    0.59901    0.80336   1.00
H1       0.79628    0.39979    0.79152   1.00
C5       0.80591    0.47772    0.79994   1.00
H1       0.71720    0.52691    0.80328   1.00
H2       0.83020    0.45744    0.80692   1.00
H2       0.81932    0.50269    0.78424   1.00
H2       0.81033    0.54256    0.67233   1.00
H2       0.80647    0.49731    0.69719   1.00
N1       0.78768    0.49143    0.83605   1.00
C6       0.77275    0.46927    0.86444   1.00
C6       0.78380    0.52846    0.84744   1.00
C6       0.75867    0.49241    0.89410   1.00
C6       0.76570    0.53005    0.88330   1.00
H3       0.77175    0.43803    0.86362   1.00
H3       0.79324    0.55300    0.83059   1.00
H3       0.74485    0.48287    0.92066   1.00
H3       0.75842    0.55575    0.89972   1.00
N1       0.76121    0.50857    0.65673   1.00
C6       0.75420    0.47154    0.64695   1.00
C6       0.73871    0.53073    0.63387   1.00
C6       0.72652    0.46995    0.61785   1.00
C6       0.71666    0.50759    0.60954   1.00
H3       0.76811    0.44700    0.66035   1.00
H3       0.73799    0.56197    0.63494   1.00
H3       0.71480    0.44425    0.60423   1.00
H3       0.69576    0.51713    0.58811   1.00
C4       0.74980    0.74997    0.52085   1.00
C4       0.75020    0.75003    0.47915   1.00
C3a      0.71935    0.76837    0.54254   1.00
C3       0.72694    0.72370    0.45768   1.00
C3       0.77967    0.73148    0.54232   1.00
C3a      0.77403    0.77644    0.45746   1.00
C2       0.75001    0.74992    0.60512   1.00
C2       0.75002    0.74992    0.39488   1.00
C3       0.71998    0.76811    0.58405   1.00
C3       0.72680    0.72376    0.41637   1.00
C3       0.77979    0.73158    0.58363   1.00
C3       0.77350    0.77601    0.41595   1.00
C5       0.68604    0.78909    0.52228   1.00
H1       0.70846    0.70321    0.47309   1.00
H1       0.69688    0.78231    0.60021   1.00
H1       0.70838    0.70324    0.40099   1.00
H1       0.80336    0.71726    0.59901   1.00
H1       0.79152    0.79628    0.39979   1.00
C5       0.79994    0.80591    0.47772   1.00
H1       0.80328    0.71720    0.52691   1.00
H2       0.80692    0.83020    0.45744   1.00
H2       0.78424    0.81932    0.50269   1.00
H2       0.67233    0.81033    0.54256   1.00
H2       0.69719    0.80647    0.49731   1.00
N1       0.83605    0.78768    0.49143   1.00
C6       0.86444    0.77275    0.46927   1.00
C6       0.84744    0.78380    0.52846   1.00
C6       0.89410    0.75867    0.49241   1.00
C6       0.88330    0.76570    0.53005   1.00
H3       0.86362    0.77175    0.43803   1.00
H3       0.83059    0.79324    0.55300   1.00
H3       0.92066    0.74485    0.48287   1.00
H3       0.89972    0.75842    0.55575   1.00
N1       0.65673    0.76121    0.50857   1.00
C6       0.64695    0.75420    0.47154   1.00
C6       0.63387    0.73871    0.53073   1.00
C6       0.61785    0.72652    0.46995   1.00
C6       0.60954    0.71666    0.50759   1.00
H3       0.66035    0.76811    0.44700   1.00
H3       0.63494    0.73799    0.56197   1.00
H3       0.60423    0.71480    0.44425   1.00
H3       0.58811    0.69576    0.51713   1.00
C4       0.24980    0.25003    0.97915   1.00
C4       0.25020    0.24997    1.02085   1.00
C3a      0.21935    0.23163    0.95746   1.00
C3       0.22694    0.27630    1.04232   1.00
C3       0.27967    0.26852    0.95768   1.00
C3a      0.27403    0.22356    1.04254   1.00
C2       0.25001    0.25008    0.89488   1.00
C2       0.25002    0.25008    1.10512   1.00
C3       0.21998    0.23189    0.91595   1.00
C3       0.22680    0.27624    1.08363   1.00
C3       0.27979    0.26842    0.91637   1.00
C3       0.27350    0.22399    1.08405   1.00
C5       0.18604    0.21091    0.97772   1.00
H1       0.20846    0.29679    1.02691   1.00
H1       0.19688    0.21769    0.89979   1.00
H1       0.20838    0.29676    1.09901   1.00
H1       0.30336    0.28274    0.90099   1.00
H1       0.29152    0.20372    1.10021   1.00
C5       0.29994    0.19409    1.02228   1.00
H1       0.30328    0.28280    0.97309   1.00
H2       0.30692    0.16980    1.04256   1.00
H2       0.28424    0.18068    0.99731   1.00
H2       0.17233    0.18967    0.95744   1.00
H2       0.19719    0.19353    1.00269   1.00
N1       0.33605    0.21232    1.00857   1.00
C6       0.36444    0.22725    1.03073   1.00
C6       0.34744    0.21620    0.97154   1.00
C6       0.39410    0.24133    1.00759   1.00
C6       0.38330    0.23430    0.96995   1.00
H3       0.36362    0.22825    1.06197   1.00
H3       0.33059    0.20676    0.94700   1.00
H3       0.42066    0.25515    1.01713   1.00
H3       0.39972    0.24158    0.94425   1.00
N1       0.15673    0.23879    0.99143   1.00
C6       0.14695    0.24580    1.02846   1.00
C6       0.13387    0.26129    0.96927   1.00
C6       0.11785    0.27348    1.03005   1.00
C6       0.10954    0.28334    0.99241   1.00
H3       0.16035    0.23189    1.05300   1.00
H3       0.13494    0.26201    0.93803   1.00
H3       0.10423    0.28520    1.05575   1.00
H3       0.08811    0.30424    0.98287   1.00
C4       0.25003    0.47915    0.74980   1.00
C4       0.24997    0.52085    0.75020   1.00
C3a      0.23163    0.45746    0.71935   1.00
C3       0.27630    0.54232    0.72694   1.00
C3       0.26852    0.45768    0.77967   1.00
C3a      0.22356    0.54254    0.77403   1.00
C2       0.25008    0.39488    0.75001   1.00
C2       0.25008    0.60512    0.75002   1.00
C3       0.23189    0.41595    0.71998   1.00
C3       0.27624    0.58363    0.72680   1.00
C3       0.26842    0.41637    0.77979   1.00
C3       0.22399    0.58405    0.77350   1.00
C5       0.21091    0.47772    0.68604   1.00
H1       0.29679    0.52691    0.70846   1.00
H1       0.21769    0.39979    0.69688   1.00
H1       0.29676    0.59901    0.70838   1.00
H1       0.28274    0.40099    0.80336   1.00
H1       0.20372    0.60021    0.79152   1.00
C5       0.19409    0.52228    0.79994   1.00
H1       0.28280    0.47309    0.80328   1.00
H2       0.16980    0.54256    0.80692   1.00
H2       0.18068    0.49731    0.78424   1.00
H2       0.18967    0.45744    0.67233   1.00
H2       0.19353    0.50269    0.69719   1.00
N1       0.21232    0.50857    0.83605   1.00
C6       0.22725    0.53073    0.86444   1.00
C6       0.21620    0.47154    0.84744   1.00
C6       0.24133    0.50759    0.89410   1.00
C6       0.23430    0.46995    0.88330   1.00
H3       0.22825    0.56197    0.86362   1.00
H3       0.20676    0.44700    0.83059   1.00
H3       0.25515    0.51713    0.92066   1.00
H3       0.24158    0.44425    0.89972   1.00
N1       0.23879    0.49143    0.65673   1.00
C6       0.24580    0.52846    0.64695   1.00
C6       0.26129    0.46927    0.63387   1.00
C6       0.27348    0.53005    0.61785   1.00
C6       0.28334    0.49241    0.60954   1.00
H3       0.23189    0.55300    0.66035   1.00
H3       0.26201    0.43803    0.63494   1.00
H3       0.28520    0.55575    0.60423   1.00
H3       0.30424    0.48287    0.58811   1.00
C4       0.02085    0.24980    0.74997   1.00
C4       -0.02085   0.25020    0.75003   1.00
C3a      0.04254    0.21935    0.76837   1.00
C3       -0.04232   0.22694    0.72370   1.00
C3       0.04232    0.27967    0.73148   1.00
C3a      -0.04254   0.27403    0.77644   1.00
C2       0.10512    0.25001    0.74992   1.00
C2       -0.10512   0.25002    0.74992   1.00
C3       0.08405    0.21998    0.76811   1.00
C3       -0.08363   0.22680    0.72376   1.00
C3       0.08363    0.27979    0.73158   1.00
C3       -0.08405   0.27350    0.77601   1.00
C5       0.02228    0.18604    0.78909   1.00
H1       -0.02691   0.20846    0.70321   1.00
H1       0.10021    0.19688    0.78231   1.00
H1       -0.09901   0.20838    0.70324   1.00
H1       0.09901    0.30336    0.71726   1.00
H1       -0.10021   0.29152    0.79628   1.00
C5       -0.02228   0.29994    0.80591   1.00
H1       0.02691    0.30328    0.71720   1.00
H2       -0.04256   0.30692    0.83020   1.00
H2       0.00269    0.28424    0.81932   1.00
H2       0.04256    0.17233    0.81033   1.00
H2       -0.00269   0.19719    0.80647   1.00
N1       -0.00857   0.33605    0.78768   1.00
C6       -0.03073   0.36444    0.77275   1.00
C6       0.02846    0.34744    0.78380   1.00
C6       -0.00759   0.39410    0.75867   1.00
C6       0.03005    0.38330    0.76570   1.00
H3       -0.06197   0.36362    0.77175   1.00
H3       0.05300    0.33059    0.79324   1.00
H3       -0.01713   0.42066    0.74485   1.00
H3       0.05575    0.39972    0.75842   1.00
N1       0.00857    0.15673    0.76121   1.00
C6       -0.02846   0.14695    0.75420   1.00
C6       0.03073    0.13387    0.73871   1.00
C6       -0.03005   0.11785    0.72652   1.00
C6       0.00759    0.10954    0.71666   1.00
H3       -0.05300   0.16035    0.76811   1.00
H3       0.06197    0.13494    0.73799   1.00
H3       -0.05575   0.10423    0.71480   1.00
H3       0.01713    0.08811    0.69576   1.00
C4       0.47915    0.24980    0.75003   1.00
C4       0.52085    0.25020    0.74997   1.00
C3a      0.45746    0.21935    0.73163   1.00
C3       0.54232    0.22694    0.77630   1.00
C3       0.45768    0.27967    0.76852   1.00
C3a      0.54254    0.27403    0.72356   1.00
C2       0.39488    0.25001    0.75008   1.00
C2       0.60512    0.25002    0.75008   1.00
C3       0.41595    0.21998    0.73189   1.00
C3       0.58363    0.22680    0.77624   1.00
C3       0.41637    0.27979    0.76842   1.00
C3       0.58405    0.27350    0.72399   1.00
C5       0.47772    0.18604    0.71091   1.00
H1       0.52691    0.20846    0.79679   1.00
H1       0.39979    0.19688    0.71769   1.00
H1       0.59901    0.20838    0.79676   1.00
H1       0.40099    0.30336    0.78274   1.00
H1       0.60021    0.29152    0.70372   1.00
C5       0.52228    0.29994    0.69409   1.00
H1       0.47309    0.30328    0.78280   1.00
H2       0.54256    0.30692    0.66980   1.00
H2       0.49731    0.28424    0.68068   1.00
H2       0.45744    0.17233    0.68967   1.00
H2       0.50269    0.19719    0.69353   1.00
N1       0.50857    0.33605    0.71232   1.00
C6       0.53073    0.36444    0.72725   1.00
C6       0.47154    0.34744    0.71620   1.00
C6       0.50759    0.39410    0.74133   1.00
C6       0.46995    0.38330    0.73430   1.00
H3       0.56197    0.36362    0.72825   1.00
H3       0.44700    0.33059    0.70676   1.00
H3       0.51713    0.42066    0.75515   1.00
H3       0.44425    0.39972    0.74158   1.00
N1       0.49143    0.15673    0.73879   1.00
C6       0.52846    0.14695    0.74580   1.00
C6       0.46927    0.13387    0.76129   1.00
C6       0.53005    0.11785    0.77348   1.00
C6       0.49241    0.10954    0.78334   1.00
H3       0.55300    0.16035    0.73189   1.00
H3       0.43803    0.13494    0.76201   1.00
H3       0.55575    0.10423    0.78520   1.00
H3       0.48287    0.08811    0.80424   1.00
C4       0.24997    0.02085    0.74980   1.00
C4       0.25003    -0.02085   0.75020   1.00
C3a      0.26837    0.04254    0.71935   1.00
C3       0.22370    -0.04232   0.72694   1.00
C3       0.23148    0.04232    0.77967   1.00
C3a      0.27644    -0.04254   0.77403   1.00
C2       0.24992    0.10512    0.75001   1.00
C2       0.24992    -0.10512   0.75002   1.00
C3       0.26811    0.08405    0.71998   1.00
C3       0.22376    -0.08363   0.72680   1.00
C3       0.23158    0.08363    0.77979   1.00
C3       0.27601    -0.08405   0.77350   1.00
C5       0.28909    0.02228    0.68604   1.00
H1       0.20321    -0.02691   0.70846   1.00
H1       0.28231    0.10021    0.69688   1.00
H1       0.20324    -0.09901   0.70838   1.00
H1       0.21726    0.09901    0.80336   1.00
H1       0.29628    -0.10021   0.79152   1.00
C5       0.30591    -0.02228   0.79994   1.00
H1       0.21720    0.02691    0.80328   1.00
H2       0.33020    -0.04256   0.80692   1.00
H2       0.31932    0.00269    0.78424   1.00
H2       0.31033    0.04256    0.67233   1.00
H2       0.30647    -0.00269   0.69719   1.00
N1       0.28768    -0.00857   0.83605   1.00
C6       0.27275    -0.03073   0.86444   1.00
C6       0.28380    0.02846    0.84744   1.00
C6       0.25867    -0.00759   0.89410   1.00
C6       0.26570    0.03005    0.88330   1.00
H3       0.27175    -0.06197   0.86362   1.00
H3       0.29324    0.05300    0.83059   1.00
H3       0.24485    -0.01713   0.92066   1.00
H3       0.25842    0.05575    0.89972   1.00
N1       0.26121    0.00857    0.65673   1.00
C6       0.25420    -0.02846   0.64695   1.00
C6       0.23871    0.03073    0.63387   1.00
C6       0.22652    -0.03005   0.61785   1.00
C6       0.21666    0.00759    0.60954   1.00
H3       0.26811    -0.05300   0.66035   1.00
H3       0.23799    0.06197    0.63494   1.00
H3       0.21480    -0.05575   0.60423   1.00
H3       0.19576    0.01713    0.58811   1.00
C4       0.24980    0.24997    0.52085   1.00
C4       0.25020    0.25003    0.47915   1.00
C3a      0.21935    0.26837    0.54254   1.00
C3       0.22694    0.22370    0.45768   1.00
C3       0.27967    0.23148    0.54232   1.00
C3a      0.27403    0.27644    0.45746   1.00
C2       0.25001    0.24992    0.60512   1.00
C2       0.25002    0.24992    0.39488   1.00
C3       0.21998    0.26811    0.58405   1.00
C3       0.22680    0.22376    0.41637   1.00
C3       0.27979    0.23158    0.58363   1.00
C3       0.27350    0.27601    0.41595   1.00
C5       0.18604    0.28909    0.52228   1.00
H1       0.20846    0.20321    0.47309   1.00
H1       0.19688    0.28231    0.60021   1.00
H1       0.20838    0.20324    0.40099   1.00
H1       0.30336    0.21726    0.59901   1.00
H1       0.29152    0.29628    0.39979   1.00
C5       0.29994    0.30591    0.47772   1.00
H1       0.30328    0.21720    0.52691   1.00
H2       0.30692    0.33020    0.45744   1.00
H2       0.28424    0.31932    0.50269   1.00
H2       0.17233    0.31033    0.54256   1.00
H2       0.19719    0.30647    0.49731   1.00
N1       0.33605    0.28768    0.49143   1.00
C6       0.36444    0.27275    0.46927   1.00
C6       0.34744    0.28380    0.52846   1.00
C6       0.39410    0.25867    0.49241   1.00
C6       0.38330    0.26570    0.53005   1.00
H3       0.36362    0.27175    0.43803   1.00
H3       0.33059    0.29324    0.55300   1.00
H3       0.42066    0.24485    0.48287   1.00
H3       0.39972    0.25842    0.55575   1.00
N1       0.15673    0.26121    0.50857   1.00
C6       0.14695    0.25420    0.47154   1.00
C6       0.13387    0.23871    0.53073   1.00
C6       0.11785    0.22652    0.46995   1.00
C6       0.10954    0.21666    0.50759   1.00
H3       0.16035    0.26811    0.44700   1.00
H3       0.13494    0.23799    0.56197   1.00
H3       0.10423    0.21480    0.44425   1.00
H3       0.08811    0.19576    0.51713   1.00
C4       0.24980    0.75003    0.47915   1.00
C4       0.25020    0.74997    0.52085   1.00
C3a      0.21935    0.73163    0.45746   1.00
C3       0.22694    0.77630    0.54232   1.00
C3       0.27967    0.76852    0.45768   1.00
C3a      0.27403    0.72356    0.54254   1.00
C2       0.25001    0.75008    0.39488   1.00
C2       0.25002    0.75008    0.60512   1.00
C3       0.21998    0.73189    0.41595   1.00
C3       0.22680    0.77624    0.58363   1.00
C3       0.27979    0.76842    0.41637   1.00
C3       0.27350    0.72399    0.58405   1.00
C5       0.18604    0.71091    0.47772   1.00
H1       0.20846    0.79679    0.52691   1.00
H1       0.19688    0.71769    0.39979   1.00
H1       0.20838    0.79676    0.59901   1.00
H1       0.30336    0.78274    0.40099   1.00
H1       0.29152    0.70372    0.60021   1.00
C5       0.29994    0.69409    0.52228   1.00
H1       0.30328    0.78280    0.47309   1.00
H2       0.30692    0.66980    0.54256   1.00
H2       0.28424    0.68068    0.49731   1.00
H2       0.17233    0.68967    0.45744   1.00
H2       0.19719    0.69353    0.50269   1.00
N1       0.33605    0.71232    0.50857   1.00
C6       0.36444    0.72725    0.53073   1.00
C6       0.34744    0.71620    0.47154   1.00
C6       0.39410    0.74133    0.50759   1.00
C6       0.38330    0.73430    0.46995   1.00
H3       0.36362    0.72825    0.56197   1.00
H3       0.33059    0.70676    0.44700   1.00
H3       0.42066    0.75515    0.51713   1.00
H3       0.39972    0.74158    0.44425   1.00
N1       0.15673    0.73879    0.49143   1.00
C6       0.14695    0.74580    0.52846   1.00
C6       0.13387    0.76129    0.46927   1.00
C6       0.11785    0.77348    0.53005   1.00
C6       0.10954    0.78334    0.49241   1.00
H3       0.16035    0.73189    0.55300   1.00
H3       0.13494    0.76201    0.43803   1.00
H3       0.10423    0.78520    0.55575   1.00
H3       0.08811    0.80424    0.48287   1.00
C4       0.25003    0.97915    0.24980   1.00
C4       0.24997    1.02085    0.25020   1.00
C3a      0.23163    0.95746    0.21935   1.00
C3       0.27630    1.04232    0.22694   1.00
C3       0.26852    0.95768    0.27967   1.00
C3a      0.22356    1.04254    0.27403   1.00
C2       0.25008    0.89488    0.25001   1.00
C2       0.25008    1.10512    0.25002   1.00
C3       0.23189    0.91595    0.21998   1.00
C3       0.27624    1.08363    0.22680   1.00
C3       0.26842    0.91637    0.27979   1.00
C3       0.22399    1.08405    0.27350   1.00
C5       0.21091    0.97772    0.18604   1.00
H1       0.29679    1.02691    0.20846   1.00
H1       0.21769    0.89979    0.19688   1.00
H1       0.29676    1.09901    0.20838   1.00
H1       0.28274    0.90099    0.30336   1.00
H1       0.20372    1.10021    0.29152   1.00
C5       0.19409    1.02228    0.29994   1.00
H1       0.28280    0.97309    0.30328   1.00
H2       0.16980    1.04256    0.30692   1.00
H2       0.18068    0.99731    0.28424   1.00
H2       0.18967    0.95744    0.17233   1.00
H2       0.19353    1.00269    0.19719   1.00
N1       0.21232    1.00857    0.33605   1.00
C6       0.22725    1.03073    0.36444   1.00
C6       0.21620    0.97154    0.34744   1.00
C6       0.24133    1.00759    0.39410   1.00
C6       0.23430    0.96995    0.38330   1.00
H3       0.22825    1.06197    0.36362   1.00
H3       0.20676    0.94700    0.33059   1.00
H3       0.25515    1.01713    0.42066   1.00
H3       0.24158    0.94425    0.39972   1.00
N1       0.23879    0.99143    0.15673   1.00
C6       0.24580    1.02846    0.14695   1.00
C6       0.26129    0.96927    0.13387   1.00
C6       0.27348    1.03005    0.11785   1.00
C6       0.28334    0.99241    0.10954   1.00
H3       0.23189    1.05300    0.16035   1.00
H3       0.26201    0.93803    0.13494   1.00
H3       0.28520    1.05575    0.10423   1.00
H3       0.30424    0.98287    0.08811   1.00
C4       0.02085    0.74980    0.24997   1.00
C4       -0.02085   0.75020    0.25003   1.00
C3a      0.04254    0.71935    0.26837   1.00
C3       -0.04232   0.72694    0.22370   1.00
C3       0.04232    0.77967    0.23148   1.00
C3a      -0.04254   0.77403    0.27644   1.00
C2       0.10512    0.75001    0.24992   1.00
C2       -0.10512   0.75002    0.24992   1.00
C3       0.08405    0.71998    0.26811   1.00
C3       -0.08363   0.72680    0.22376   1.00
C3       0.08363    0.77979    0.23158   1.00
C3       -0.08405   0.77350    0.27601   1.00
C5       0.02228    0.68604    0.28909   1.00
H1       -0.02691   0.70846    0.20321   1.00
H1       0.10021    0.69688    0.28231   1.00
H1       -0.09901   0.70838    0.20324   1.00
H1       0.09901    0.80336    0.21726   1.00
H1       -0.10021   0.79152    0.29628   1.00
C5       -0.02228   0.79994    0.30591   1.00
H1       0.02691    0.80328    0.21720   1.00
H2       -0.04256   0.80692    0.33020   1.00
H2       0.00269    0.78424    0.31932   1.00
H2       0.04256    0.67233    0.31033   1.00
H2       -0.00269   0.69719    0.30647   1.00
N1       -0.00857   0.83605    0.28768   1.00
C6       -0.03073   0.86444    0.27275   1.00
C6       0.02846    0.84744    0.28380   1.00
C6       -0.00759   0.89410    0.25867   1.00
C6       0.03005    0.88330    0.26570   1.00
H3       -0.06197   0.86362    0.27175   1.00
H3       0.05300    0.83059    0.29324   1.00
H3       -0.01713   0.92066    0.24485   1.00
H3       0.05575    0.89972    0.25842   1.00
N1       0.00857    0.65673    0.26121   1.00
C6       -0.02846   0.64695    0.25420   1.00
C6       0.03073    0.63387    0.23871   1.00
C6       -0.03005   0.61785    0.22652   1.00
C6       0.00759    0.60954    0.21666   1.00
H3       -0.05300   0.66035    0.26811   1.00
H3       0.06197    0.63494    0.23799   1.00
H3       -0.05575   0.60423    0.21480   1.00
H3       0.01713    0.58811    0.19576   1.00
C4       0.47915    0.74980    0.25003   1.00
C4       0.52085    0.75020    0.24997   1.00
C3a      0.45746    0.71935    0.23163   1.00
C3       0.54232    0.72694    0.27630   1.00
C3       0.45768    0.77967    0.26852   1.00
C3a      0.54254    0.77403    0.22356   1.00
C2       0.39488    0.75001    0.25008   1.00
C2       0.60512    0.75002    0.25008   1.00
C3       0.41595    0.71998    0.23189   1.00
C3       0.58363    0.72680    0.27624   1.00
C3       0.41637    0.77979    0.26842   1.00
C3       0.58405    0.77350    0.22399   1.00
C5       0.47772    0.68604    0.21091   1.00
H1       0.52691    0.70846    0.29679   1.00
H1       0.39979    0.69688    0.21769   1.00
H1       0.59901    0.70838    0.29676   1.00
H1       0.40099    0.80336    0.28274   1.00
H1       0.60021    0.79152    0.20372   1.00
C5       0.52228    0.79994    0.19409   1.00
H1       0.47309    0.80328    0.28280   1.00
H2       0.54256    0.80692    0.16980   1.00
H2       0.49731    0.78424    0.18068   1.00
H2       0.45744    0.67233    0.18967   1.00
H2       0.50269    0.69719    0.19353   1.00
N1       0.50857    0.83605    0.21232   1.00
C6       0.53073    0.86444    0.22725   1.00
C6       0.47154    0.84744    0.21620   1.00
C6       0.50759    0.89410    0.24133   1.00
C6       0.46995    0.88330    0.23430   1.00
H3       0.56197    0.86362    0.22825   1.00
H3       0.44700    0.83059    0.20676   1.00
H3       0.51713    0.92066    0.25515   1.00
H3       0.44425    0.89972    0.24158   1.00
N1       0.49143    0.65673    0.23879   1.00
C6       0.52846    0.64695    0.24580   1.00
C6       0.46927    0.63387    0.26129   1.00
C6       0.53005    0.61785    0.27348   1.00
C6       0.49241    0.60954    0.28334   1.00
H3       0.55300    0.66035    0.23189   1.00
H3       0.43803    0.63494    0.26201   1.00
H3       0.55575    0.60423    0.28520   1.00
H3       0.48287    0.58811    0.30424   1.00
C4       0.24997    0.52085    0.24980   1.00
C4       0.25003    0.47915    0.25020   1.00
C3a      0.26837    0.54254    0.21935   1.00
C3       0.22370    0.45768    0.22694   1.00
C3       0.23148    0.54232    0.27967   1.00
C3a      0.27644    0.45746    0.27403   1.00
C2       0.24992    0.60512    0.25001   1.00
C2       0.24992    0.39488    0.25002   1.00
C3       0.26811    0.58405    0.21998   1.00
C3       0.22376    0.41637    0.22680   1.00
C3       0.23158    0.58363    0.27979   1.00
C3       0.27601    0.41595    0.27350   1.00
C5       0.28909    0.52228    0.18604   1.00
H1       0.20321    0.47309    0.20846   1.00
H1       0.28231    0.60021    0.19688   1.00
H1       0.20324    0.40099    0.20838   1.00
H1       0.21726    0.59901    0.30336   1.00
H1       0.29628    0.39979    0.29152   1.00
C5       0.30591    0.47772    0.29994   1.00
H1       0.21720    0.52691    0.30328   1.00
H2       0.33020    0.45744    0.30692   1.00
H2       0.31932    0.50269    0.28424   1.00
H2       0.31033    0.54256    0.17233   1.00
H2       0.30647    0.49731    0.19719   1.00
N1       0.28768    0.49143    0.33605   1.00
C6       0.27275    0.46927    0.36444   1.00
C6       0.28380    0.52846    0.34744   1.00
C6       0.25867    0.49241    0.39410   1.00
C6       0.26570    0.53005    0.38330   1.00
H3       0.27175    0.43803    0.36362   1.00
H3       0.29324    0.55300    0.33059   1.00
H3       0.24485    0.48287    0.42066   1.00
H3       0.25842    0.55575    0.39972   1.00
N1       0.26121    0.50857    0.15673   1.00
C6       0.25420    0.47154    0.14695   1.00
C6       0.23871    0.53073    0.13387   1.00
C6       0.22652    0.46995    0.11785   1.00
C6       0.21666    0.50759    0.10954   1.00
H3       0.26811    0.44700    0.16035   1.00
H3       0.23799    0.56197    0.13494   1.00
H3       0.21480    0.44425    0.10423   1.00
H3       0.19576    0.51713    0.08811   1.00
C4       0.24980    0.74997    0.02085   1.00
C4       0.25020    0.75003    -0.02085   1.00
C3a      0.21935    0.76837    0.04254   1.00
C3       0.22694    0.72370    -0.04232   1.00
C3       0.27967    0.73148    0.04232   1.00
C3a      0.27403    0.77644    -0.04254   1.00
C2       0.25001    0.74992    0.10512   1.00
C2       0.25002    0.74992    -0.10512   1.00
C3       0.21998    0.76811    0.08405   1.00
C3       0.22680    0.72376    -0.08363   1.00
C3       0.27979    0.73158    0.08363   1.00
C3       0.27350    0.77601    -0.08405   1.00
C5       0.18604    0.78909    0.02228   1.00
H1       0.20846    0.70321    -0.02691   1.00
H1       0.19688    0.78231    0.10021   1.00
H1       0.20838    0.70324    -0.09901   1.00
H1       0.30336    0.71726    0.09901   1.00
H1       0.29152    0.79628    -0.10021   1.00
C5       0.29994    0.80591    -0.02228   1.00
H1       0.30328    0.71720    0.02691   1.00
H2       0.30692    0.83020    -0.04256   1.00
H2       0.28424    0.81932    0.00269   1.00
H2       0.17233    0.81033    0.04256   1.00
H2       0.19719    0.80647    -0.00269   1.00
N1       0.33605    0.78768    -0.00857   1.00
C6       0.36444    0.77275    -0.03073   1.00
C6       0.34744    0.78380    0.02846   1.00
C6       0.39410    0.75867    -0.00759   1.00
C6       0.38330    0.76570    0.03005   1.00
H3       0.36362    0.77175    -0.06197   1.00
H3       0.33059    0.79324    0.05300   1.00
H3       0.42066    0.74485    -0.01713   1.00
H3       0.39972    0.75842    0.05575   1.00
N1       0.15673    0.76121    0.00857   1.00
C6       0.14695    0.75420    -0.02846   1.00
C6       0.13387    0.73871    0.03073   1.00
C6       0.11785    0.72652    -0.03005   1.00
C6       0.10954    0.71666    0.00759   1.00
H3       0.16035    0.76811    -0.05300   1.00
H3       0.13494    0.73799    0.06197   1.00
H3       0.10423    0.71480    -0.05575   1.00
H3       0.08811    0.69576    0.01713   1.00
C4       0.74980    0.25003    0.47915   1.00
C4       0.75020    0.24997    0.52085   1.00
C3a      0.71935    0.23163    0.45746   1.00
C3       0.72694    0.27630    0.54232   1.00
C3       0.77967    0.26852    0.45768   1.00
C3a      0.77403    0.22356    0.54254   1.00
C2       0.75001    0.25008    0.39488   1.00
C2       0.75002    0.25008    0.60512   1.00
C3       0.71998    0.23189    0.41595   1.00
C3       0.72680    0.27624    0.58363   1.00
C3       0.77979    0.26842    0.41637   1.00
C3       0.77350    0.22399    0.58405   1.00
C5       0.68604    0.21091    0.47772   1.00
H1       0.70846    0.29679    0.52691   1.00
H1       0.69688    0.21769    0.39979   1.00
H1       0.70838    0.29676    0.59901   1.00
H1       0.80336    0.28274    0.40099   1.00
H1       0.79152    0.20372    0.60021   1.00
C5       0.79994    0.19409    0.52228   1.00
H1       0.80328    0.28280    0.47309   1.00
H2       0.80692    0.16980    0.54256   1.00
H2       0.78424    0.18068    0.49731   1.00
H2       0.67233    0.18967    0.45744   1.00
H2       0.69719    0.19353    0.50269   1.00
N1       0.83605    0.21232    0.50857   1.00
C6       0.86444    0.22725    0.53073   1.00
C6       0.84744    0.21620    0.47154   1.00
C6       0.89410    0.24133    0.50759   1.00
C6       0.88330    0.23430    0.46995   1.00
H3       0.86362    0.22825    0.56197   1.00
H3       0.83059    0.20676    0.44700   1.00
H3       0.92066    0.25515    0.51713   1.00
H3       0.89972    0.24158    0.44425   1.00
N1       0.65673    0.23879    0.49143   1.00
C6       0.64695    0.24580    0.52846   1.00
C6       0.63387    0.26129    0.46927   1.00
C6       0.61785    0.27348    0.53005   1.00
C6       0.60954    0.28334    0.49241   1.00
H3       0.66035    0.23189    0.55300   1.00
H3       0.63494    0.26201    0.43803   1.00
H3       0.60423    0.28520    0.55575   1.00
H3       0.58811    0.30424    0.48287   1.00
C4       0.75003    0.47915    0.24980   1.00
C4       0.74997    0.52085    0.25020   1.00
C3a      0.73163    0.45746    0.21935   1.00
C3       0.77630    0.54232    0.22694   1.00
C3       0.76852    0.45768    0.27967   1.00
C3a      0.72356    0.54254    0.27403   1.00
C2       0.75008    0.39488    0.25001   1.00
C2       0.75008    0.60512    0.25002   1.00
C3       0.73189    0.41595    0.21998   1.00
C3       0.77624    0.58363    0.22680   1.00
C3       0.76842    0.41637    0.27979   1.00
C3       0.72399    0.58405    0.27350   1.00
C5       0.71091    0.47772    0.18604   1.00
H1       0.79679    0.52691    0.20846   1.00
H1       0.71769    0.39979    0.19688   1.00
H1       0.79676    0.59901    0.20838   1.00
H1       0.78274    0.40099    0.30336   1.00
H1       0.70372    0.60021    0.29152   1.00
C5       0.69409    0.52228    0.29994   1.00
H1       0.78280    0.47309    0.30328   1.00
H2       0.66980    0.54256    0.30692   1.00
H2       0.68068    0.49731    0.28424   1.00
H2       0.68967    0.45744    0.17233   1.00
H2       0.69353    0.50269    0.19719   1.00
N1       0.71232    0.50857    0.33605   1.00
C6       0.72725    0.53073    0.36444   1.00
C6       0.71620    0.47154    0.34744   1.00
C6       0.74133    0.50759    0.39410   1.00
C6       0.73430    0.46995    0.38330   1.00
H3       0.72825    0.56197    0.36362   1.00
H3       0.70676    0.44700    0.33059   1.00
H3       0.75515    0.51713    0.42066   1.00
H3       0.74158    0.44425    0.39972   1.00
N1       0.73879    0.49143    0.15673   1.00
C6       0.74580    0.52846    0.14695   1.00
C6       0.76129    0.46927    0.13387   1.00
C6       0.77348    0.53005    0.11785   1.00
C6       0.78334    0.49241    0.10954   1.00
H3       0.73189    0.55300    0.16035   1.00
H3       0.76201    0.43803    0.13494   1.00
H3       0.78520    0.55575    0.10423   1.00
H3       0.80424    0.48287    0.08811   1.00
C4       0.52085    0.24980    0.24997   1.00
C4       0.47915    0.25020    0.25003   1.00
C3a      0.54254    0.21935    0.26837   1.00
C3       0.45768    0.22694    0.22370   1.00
C3       0.54232    0.27967    0.23148   1.00
C3a      0.45746    0.27403    0.27644   1.00
C2       0.60512    0.25001    0.24992   1.00
C2       0.39488    0.25002    0.24992   1.00
C3       0.58405    0.21998    0.26811   1.00
C3       0.41637    0.22680    0.22376   1.00
C3       0.58363    0.27979    0.23158   1.00
C3       0.41595    0.27350    0.27601   1.00
C5       0.52228    0.18604    0.28909   1.00
H1       0.47309    0.20846    0.20321   1.00
H1       0.60021    0.19688    0.28231   1.00
H1       0.40099    0.20838    0.20324   1.00
H1       0.59901    0.30336    0.21726   1.00
H1       0.39979    0.29152    0.29628   1.00
C5       0.47772    0.29994    0.30591   1.00
H1       0.52691    0.30328    0.21720   1.00
H2       0.45744    0.30692    0.33020   1.00
H2       0.50269    0.28424    0.31932   1.00
H2       0.54256    0.17233    0.31033   1.00
H2       0.49731    0.19719    0.30647   1.00
N1       0.49143    0.33605    0.28768   1.00
C6       0.46927    0.36444    0.27275   1.00
C6       0.52846    0.34744    0.28380   1.00
C6       0.49241    0.39410    0.25867   1.00
C6       0.53005    0.38330    0.26570   1.00
H3       0.43803    0.36362    0.27175   1.00
H3       0.55300    0.33059    0.29324   1.00
H3       0.48287    0.42066    0.24485   1.00
H3       0.55575    0.39972    0.25842   1.00
N1       0.50857    0.15673    0.26121   1.00
C6       0.47154    0.14695    0.25420   1.00
C6       0.53073    0.13387    0.23871   1.00
C6       0.46995    0.11785    0.22652   1.00
C6       0.50759    0.10954    0.21666   1.00
H3       0.44700    0.16035    0.26811   1.00
H3       0.56197    0.13494    0.23799   1.00
H3       0.44425    0.10423    0.21480   1.00
H3       0.51713    0.08811    0.19576   1.00
C4       0.97915    0.24980    0.25003   1.00
C4       1.02085    0.25020    0.24997   1.00
C3a      0.95746    0.21935    0.23163   1.00
C3       1.04232    0.22694    0.27630   1.00
C3       0.95768    0.27967    0.26852   1.00
C3a      1.04254    0.27403    0.22356   1.00
C2       0.89488    0.25001    0.25008   1.00
C2       1.10512    0.25002    0.25008   1.00
C3       0.91595    0.21998    0.23189   1.00
C3       1.08363    0.22680    0.27624   1.00
C3       0.91637    0.27979    0.26842   1.00
C3       1.08405    0.27350    0.22399   1.00
C5       0.97772    0.18604    0.21091   1.00
H1       1.02691    0.20846    0.29679   1.00
H1       0.89979    0.19688    0.21769   1.00
H1       1.09901    0.20838    0.29676   1.00
H1       0.90099    0.30336    0.28274   1.00
H1       1.10021    0.29152    0.20372   1.00
C5       1.02228    0.29994    0.19409   1.00
H1       0.97309    0.30328    0.28280   1.00
H2       1.04256    0.30692    0.16980   1.00
H2       0.99731    0.28424    0.18068   1.00
H2       0.95744    0.17233    0.18967   1.00
H2       1.00269    0.19719    0.19353   1.00
N1       1.00857    0.33605    0.21232   1.00
C6       1.03073    0.36444    0.22725   1.00
C6       0.97154    0.34744    0.21620   1.00
C6       1.00759    0.39410    0.24133   1.00
C6       0.96995    0.38330    0.23430   1.00
H3       1.06197    0.36362    0.22825   1.00
H3       0.94700    0.33059    0.20676   1.00
H3       1.01713    0.42066    0.25515   1.00
H3       0.94425    0.39972    0.24158   1.00
N1       0.99143    0.15673    0.23879   1.00
C6       1.02846    0.14695    0.24580   1.00
C6       0.96927    0.13387    0.26129   1.00
C6       1.03005    0.11785    0.27348   1.00
C6       0.99241    0.10954    0.28334   1.00
H3       1.05300    0.16035    0.23189   1.00
H3       0.93803    0.13494    0.26201   1.00
H3       1.05575    0.10423    0.28520   1.00
H3       0.98287    0.08811    0.30424   1.00
C4       0.74997    0.02085    0.24980   1.00
C4       0.75003    -0.02085   0.25020   1.00
C3a      0.76837    0.04254    0.21935   1.00
C3       0.72370    -0.04232   0.22694   1.00
C3       0.73148    0.04232    0.27967   1.00
C3a      0.77644    -0.04254   0.27403   1.00
C2       0.74992    0.10512    0.25001   1.00
C2       0.74992    -0.10512   0.25002   1.00
C3       0.76811    0.08405    0.21998   1.00
C3       0.72376    -0.08363   0.22680   1.00
C3       0.73158    0.08363    0.27979   1.00
C3       0.77601    -0.08405   0.27350   1.00
C5       0.78909    0.02228    0.18604   1.00
H1       0.70321    -0.02691   0.20846   1.00
H1       0.78231    0.10021    0.19688   1.00
H1       0.70324    -0.09901   0.20838   1.00
H1       0.71726    0.09901    0.30336   1.00
H1       0.79628    -0.10021   0.29152   1.00
C5       0.80591    -0.02228   0.29994   1.00
H1       0.71720    0.02691    0.30328   1.00
H2       0.83020    -0.04256   0.30692   1.00
H2       0.81932    0.00269    0.28424   1.00
H2       0.81033    0.04256    0.17233   1.00
H2       0.80647    -0.00269   0.19719   1.00
N1       0.78768    -0.00857   0.33605   1.00
C6       0.77275    -0.03073   0.36444   1.00
C6       0.78380    0.02846    0.34744   1.00
C6       0.75867    -0.00759   0.39410   1.00
C6       0.76570    0.03005    0.38330   1.00
H3       0.77175    -0.06197   0.36362   1.00
H3       0.79324    0.05300    0.33059   1.00
H3       0.74485    -0.01713   0.42066   1.00
H3       0.75842    0.05575    0.39972   1.00
N1       0.76121    0.00857    0.15673   1.00
C6       0.75420    -0.02846   0.14695   1.00
C6       0.73871    0.03073    0.13387   1.00
C6       0.72652    -0.03005   0.11785   1.00
C6       0.71666    0.00759    0.10954   1.00
H3       0.76811    -0.05300   0.16035   1.00
H3       0.73799    0.06197    0.13494   1.00
H3       0.71480    -0.05575   0.10423   1.00
H3       0.69576    0.01713    0.08811   1.00
C4       0.74980    0.24997    0.02085   1.00
C4       0.75020    0.25003    -0.02085   1.00
C3a      0.71935    0.26837    0.04254   1.00
C3       0.72694    0.22370    -0.04232   1.00
C3       0.77967    0.23148    0.04232   1.00
C3a      0.77403    0.27644    -0.04254   1.00
C2       0.75001    0.24992    0.10512   1.00
C2       0.75002    0.24992    -0.10512   1.00
C3       0.71998    0.26811    0.08405   1.00
C3       0.72680    0.22376    -0.08363   1.00
C3       0.77979    0.23158    0.08363   1.00
C3       0.77350    0.27601    -0.08405   1.00
C5       0.68604    0.28909    0.02228   1.00
H1       0.70846    0.20321    -0.02691   1.00
H1       0.69688    0.28231    0.10021   1.00
H1       0.70838    0.20324    -0.09901   1.00
H1       0.80336    0.21726    0.09901   1.00
H1       0.79152    0.29628    -0.10021   1.00
C5       0.79994    0.30591    -0.02228   1.00
H1       0.80328    0.21720    0.02691   1.00
H2       0.80692    0.33020    -0.04256   1.00
H2       0.78424    0.31932    0.00269   1.00
H2       0.67233    0.31033    0.04256   1.00
H2       0.69719    0.30647    -0.00269   1.00
N1       0.83605    0.28768    -0.00857   1.00
C6       0.86444    0.27275    -0.03073   1.00
C6       0.84744    0.28380    0.02846   1.00
C6       0.89410    0.25867    -0.00759   1.00
C6       0.88330    0.26570    0.03005   1.00
H3       0.86362    0.27175    -0.06197   1.00
H3       0.83059    0.29324    0.05300   1.00
H3       0.92066    0.24485    -0.01713   1.00
H3       0.89972    0.25842    0.05575   1.00
N1       0.65673    0.26121    0.00857   1.00
C6       0.64695    0.25420    -0.02846   1.00
C6       0.63387    0.23871    0.03073   1.00
C6       0.61785    0.22652    -0.03005   1.00
C6       0.60954    0.21666    0.00759   1.00
H3       0.66035    0.26811    -0.05300   1.00
H3       0.63494    0.23799    0.06197   1.00
H3       0.60423    0.21480    -0.05575   1.00
H3       0.58811    0.19576    0.01713   1.00
C4       0.91480    0.91503    1.14415   1.00
C4       0.91520    0.91497    1.18585   1.00
C3a      0.88435    0.89663    1.12246   1.00
C3       0.89194    0.94130    1.20732   1.00
C3       0.94467    0.93352    1.12268   1.00
C3a      0.93903    0.88856    1.20754   1.00
C2       0.91501    0.91508    1.05988   1.00
C2       0.91502    0.91508    1.27012   1.00
C3       0.88498    0.89689    1.08095   1.00
C3       0.89180    0.94124    1.24863   1.00
C3       0.94479    0.93342    1.08137   1.00
C3       0.93850    0.88899    1.24905   1.00
C5       0.85104    0.87591    1.14272   1.00
H1       0.87346    0.96179    1.19191   1.00
H1       0.86188    0.88269    1.06479   1.00
H1       0.87338    0.96176    1.26401   1.00
H1       0.96836    0.94774    1.06599   1.00
H1       0.95652    0.86872    1.26521   1.00
C5       0.96494    0.85909    1.18728   1.00
H1       0.96828    0.94780    1.13809   1.00
H2       0.97192    0.83480    1.20756   1.00
H2       0.94924    0.84568    1.16231   1.00
H2       0.83733    0.85467    1.12244   1.00
H2       0.86219    0.85853    1.16769   1.00
N1       1.00105    0.87732    1.17357   1.00
C6       1.02944    0.89225    1.19573   1.00
C6       1.01244    0.88120    1.13654   1.00
C6       1.05910    0.90633    1.17259   1.00
C6       1.04830    0.89930    1.13495   1.00
H3       1.02862    0.89325    1.22697   1.00
H3       0.99559    0.87176    1.11200   1.00
H3       1.08566    0.92015    1.18213   1.00
H3       1.06472    0.90658    1.10925   1.00
N1       0.82173    0.90379    1.15643   1.00
C6       0.81195    0.91080    1.19346   1.00
C6       0.79887    0.92629    1.13427   1.00
C6       0.78285    0.93848    1.19505   1.00
C6       0.77454    0.94834    1.15741   1.00
H3       0.82535    0.89689    1.21800   1.00
H3       0.79994    0.92701    1.10303   1.00
H3       0.76923    0.95020    1.22075   1.00
H3       0.75311    0.96924    1.14787   1.00
C4       0.91503    1.14415    0.91480   1.00
C4       0.91497    1.18585    0.91520   1.00
C3a      0.89663    1.12246    0.88435   1.00
C3       0.94130    1.20732    0.89194   1.00
C3       0.93352    1.12268    0.94467   1.00
C3a      0.88856    1.20754    0.93903   1.00
C2       0.91508    1.05988    0.91501   1.00
C2       0.91508    1.27012    0.91502   1.00
C3       0.89689    1.08095    0.88498   1.00
C3       0.94124    1.24863    0.89180   1.00
C3       0.93342    1.08137    0.94479   1.00
C3       0.88899    1.24905    0.93850   1.00
C5       0.87591    1.14272    0.85104   1.00
H1       0.96179    1.19191    0.87346   1.00
H1       0.88269    1.06479    0.86188   1.00
H1       0.96176    1.26401    0.87338   1.00
H1       0.94774    1.06599    0.96836   1.00
H1       0.86872    1.26521    0.95652   1.00
C5       0.85909    1.18728    0.96494   1.00
H1       0.94780    1.13809    0.96828   1.00
H2       0.83480    1.20756    0.97192   1.00
H2       0.84568    1.16231    0.94924   1.00
H2       0.85467    1.12244    0.83733   1.00
H2       0.85853    1.16769    0.86219   1.00
N1       0.87732    1.17357    1.00105   1.00
C6       0.89225    1.19573    1.02944   1.00
C6       0.88120    1.13654    1.01244   1.00
C6       0.90633    1.17259    1.05910   1.00
C6       0.89930    1.13495    1.04830   1.00
H3       0.89325    1.22697    1.02862   1.00
H3       0.87176    1.11200    0.99559   1.00
H3       0.92015    1.18213    1.08566   1.00
H3       0.90658    1.10925    1.06472   1.00
N1       0.90379    1.15643    0.82173   1.00
C6       0.91080    1.19346    0.81195   1.00
C6       0.92629    1.13427    0.79887   1.00
C6       0.93848    1.19505    0.78285   1.00
C6       0.94834    1.15741    0.77454   1.00
H3       0.89689    1.21800    0.82535   1.00
H3       0.92701    1.10303    0.79994   1.00
H3       0.95020    1.22075    0.76923   1.00
H3       0.96924    1.14787    0.75311   1.00
C4       0.68585    0.91480    0.91497   1.00
C4       0.64415    0.91520    0.91503   1.00
C3a      0.70754    0.88435    0.93337   1.00
C3       0.62268    0.89194    0.88870   1.00
C3       0.70732    0.94467    0.89648   1.00
C3a      0.62246    0.93903    0.94144   1.00
C2       0.77012    0.91501    0.91492   1.00
C2       0.55988    0.91502    0.91492   1.00
C3       0.74905    0.88498    0.93311   1.00
C3       0.58137    0.89180    0.88876   1.00
C3       0.74863    0.94479    0.89658   1.00
C3       0.58095    0.93850    0.94101   1.00
C5       0.68728    0.85104    0.95409   1.00
H1       0.63809    0.87346    0.86821   1.00
H1       0.76521    0.86188    0.94731   1.00
H1       0.56599    0.87338    0.86824   1.00
H1       0.76401    0.96836    0.88226   1.00
H1       0.56479    0.95652    0.96128   1.00
C5       0.64272    0.96494    0.97091   1.00
H1       0.69191    0.96828    0.88220   1.00
H2       0.62244    0.97192    0.99520   1.00
H2       0.66769    0.94924    0.98432   1.00
H2       0.70756    0.83733    0.97533   1.00
H2       0.66231    0.86219    0.97147   1.00
N1       0.65643    1.00105    0.95268   1.00
C6       0.63427    1.02944    0.93775   1.00
C6       0.69346    1.01244    0.94880   1.00
C6       0.65741    1.05910    0.92367   1.00
C6       0.69505    1.04830    0.93070   1.00
H3       0.60303    1.02862    0.93675   1.00
H3       0.71800    0.99559    0.95824   1.00
H3       0.64787    1.08566    0.90985   1.00
H3       0.72075    1.06472    0.92342   1.00
N1       0.67357    0.82173    0.92621   1.00
C6       0.63654    0.81195    0.91920   1.00
C6       0.69573    0.79887    0.90371   1.00
C6       0.63495    0.78285    0.89152   1.00
C6       0.67259    0.77454    0.88166   1.00
H3       0.61200    0.82535    0.93311   1.00
H3       0.72697    0.79994    0.90299   1.00
H3       0.60925    0.76923    0.87980   1.00
H3       0.68213    0.75311    0.86076   1.00
C4       1.14415    0.91480    0.91503   1.00
C4       1.18585    0.91520    0.91497   1.00
C3a      1.12246    0.88435    0.89663   1.00
C3       1.20732    0.89194    0.94130   1.00
C3       1.12268    0.94467    0.93352   1.00
C3a      1.20754    0.93903    0.88856   1.00
C2       1.05988    0.91501    0.91508   1.00
C2       1.27012    0.91502    0.91508   1.00
C3       1.08095    0.88498    0.89689   1.00
C3       1.24863    0.89180    0.94124   1.00
C3       1.08137    0.94479    0.93342   1.00
C3       1.24905    0.93850    0.88899   1.00
C5       1.14272    0.85104    0.87591   1.00
H1       1.19191    0.87346    0.96179   1.00
H1       1.06479    0.86188    0.88269   1.00
H1       1.26401    0.87338    0.96176   1.00
H1       1.06599    0.96836    0.94774   1.00
H1       1.26521    0.95652    0.86872   1.00
C5       1.18728    0.96494    0.85909   1.00
H1       1.13809    0.96828    0.94780   1.00
H2       1.20756    0.97192    0.83480   1.00
H2       1.16231    0.94924    0.84568   1.00
H2       1.12244    0.83733    0.85467   1.00
H2       1.16769    0.86219    0.85853   1.00
N1       1.17357    1.00105    0.87732   1.00
C6       1.19573    1.02944    0.89225   1.00
C6       1.13654    1.01244    0.88120   1.00
C6       1.17259    1.05910    0.90633   1.00
C6       1.13495    1.04830    0.89930   1.00
H3       1.22697    1.02862    0.89325   1.00
H3       1.11200    0.99559    0.87176   1.00
H3       1.18213    1.08566    0.92015   1.00
H3       1.10925    1.06472    0.90658   1.00
N1       1.15643    0.82173    0.90379   1.00
C6       1.19346    0.81195    0.91080   1.00
C6       1.13427    0.79887    0.92629   1.00
C6       1.19505    0.78285    0.93848   1.00
C6       1.15741    0.77454    0.94834   1.00
H3       1.21800    0.82535    0.89689   1.00
H3       1.10303    0.79994    0.92701   1.00
H3       1.22075    0.76923    0.95020   1.00
H3       1.14787    0.75311    0.96924   1.00
C4       0.91497    0.68585    0.91480   1.00
C4       0.91503    0.64415    0.91520   1.00
C3a      0.93337    0.70754    0.88435   1.00
C3       0.88870    0.62268    0.89194   1.00
C3       0.89648    0.70732    0.94467   1.00
C3a      0.94144    0.62246    0.93903   1.00
C2       0.91492    0.77012    0.91501   1.00
C2       0.91492    0.55988    0.91502   1.00
C3       0.93311    0.74905    0.88498   1.00
C3       0.88876    0.58137    0.89180   1.00
C3       0.89658    0.74863    0.94479   1.00
C3       0.94101    0.58095    0.93850   1.00
C5       0.95409    0.68728    0.85104   1.00
H1       0.86821    0.63809    0.87346   1.00
H1       0.94731    0.76521    0.86188   1.00
H1       0.86824    0.56599    0.87338   1.00
H1       0.88226    0.76401    0.96836   1.00
H1       0.96128    0.56479    0.95652   1.00
C5       0.97091    0.64272    0.96494   1.00
H1       0.88220    0.69191    0.96828   1.00
H2       0.99520    0.62244    0.97192   1.00
H2       0.98432    0.66769    0.94924   1.00
H2       0.97533    0.70756    0.83733   1.00
H2       0.97147    0.66231    0.86219   1.00
N1       0.95268    0.65643    1.00105   1.00
C6       0.93775    0.63427    1.02944   1.00
C6       0.94880    0.69346    1.01244   1.00
C6       0.92367    0.65741    1.05910   1.00
C6       0.93070    0.69505    1.04830   1.00
H3       0.93675    0.60303    1.02862   1.00
H3       0.95824    0.71800    0.99559   1.00
H3       0.90985    0.64787    1.08566   1.00
H3       0.92342    0.72075    1.06472   1.00
N1       0.92621    0.67357    0.82173   1.00
C6       0.91920    0.63654    0.81195   1.00
C6       0.90371    0.69573    0.79887   1.00
C6       0.89152    0.63495    0.78285   1.00
C6       0.88166    0.67259    0.77454   1.00
H3       0.93311    0.61200    0.82535   1.00
H3       0.90299    0.72697    0.79994   1.00
H3       0.87980    0.60925    0.76923   1.00
H3       0.86076    0.68213    0.75311   1.00
C4       0.91480    0.91497    0.68585   1.00
C4       0.91520    0.91503    0.64415   1.00
C3a      0.88435    0.93337    0.70754   1.00
C3       0.89194    0.88870    0.62268   1.00
C3       0.94467    0.89648    0.70732   1.00
C3a      0.93903    0.94144    0.62246   1.00
C2       0.91501    0.91492    0.77012   1.00
C2       0.91502    0.91492    0.55988   1.00
C3       0.88498    0.93311    0.74905   1.00
C3       0.89180    0.88876    0.58137   1.00
C3       0.94479    0.89658    0.74863   1.00
C3       0.93850    0.94101    0.58095   1.00
C5       0.85104    0.95409    0.68728   1.00
H1       0.87346    0.86821    0.63809   1.00
H1       0.86188    0.94731    0.76521   1.00
H1       0.87338    0.86824    0.56599   1.00
H1       0.96836    0.88226    0.76401   1.00
H1       0.95652    0.96128    0.56479   1.00
C5       0.96494    0.97091    0.64272   1.00
H1       0.96828    0.88220    0.69191   1.00
H2       0.97192    0.99520    0.62244   1.00
H2       0.94924    0.98432    0.66769   1.00
H2       0.83733    0.97533    0.70756   1.00
H2       0.86219    0.97147    0.66231   1.00
N1       1.00105    0.95268    0.65643   1.00
C6       1.02944    0.93775    0.63427   1.00
C6       1.01244    0.94880    0.69346   1.00
C6       1.05910    0.92367    0.65741   1.00
C6       1.04830    0.93070    0.69505   1.00
H3       1.02862    0.93675    0.60303   1.00
H3       0.99559    0.95824    0.71800   1.00
H3       1.08566    0.90985    0.64787   1.00
H3       1.06472    0.92342    0.72075   1.00
N1       0.82173    0.92621    0.67357   1.00
C6       0.81195    0.91920    0.63654   1.00
C6       0.79887    0.90371    0.69573   1.00
C6       0.78285    0.89152    0.63495   1.00
C6       0.77454    0.88166    0.67259   1.00
H3       0.82535    0.93311    0.61200   1.00
H3       0.79994    0.90299    0.72697   1.00
H3       0.76923    0.87980    0.60925   1.00
H3       0.75311    0.86076    0.68213   1.00
C4       0.41480    0.41503    1.14415   1.00
C4       0.41520    0.41497    1.18585   1.00
C3a      0.38435    0.39663    1.12246   1.00
C3       0.39194    0.44130    1.20732   1.00
C3       0.44467    0.43352    1.12268   1.00
C3a      0.43903    0.38856    1.20754   1.00
C2       0.41501    0.41508    1.05988   1.00
C2       0.41502    0.41508    1.27012   1.00
C3       0.38498    0.39689    1.08095   1.00
C3       0.39180    0.44124    1.24863   1.00
C3       0.44479    0.43342    1.08137   1.00
C3       0.43850    0.38899    1.24905   1.00
C5       0.35104    0.37591    1.14272   1.00
H1       0.37346    0.46179    1.19191   1.00
H1       0.36188    0.38269    1.06479   1.00
H1       0.37338    0.46176    1.26401   1.00
H1       0.46836    0.44774    1.06599   1.00
H1       0.45652    0.36872    1.26521   1.00
C5       0.46494    0.35909    1.18728   1.00
H1       0.46828    0.44780    1.13809   1.00
H2       0.47192    0.33480    1.20756   1.00
H2       0.44924    0.34568    1.16231   1.00
H2       0.33733    0.35467    1.12244   1.00
H2       0.36219    0.35853    1.16769   1.00
N1       0.50105    0.37732    1.17357   1.00
C6       0.52944    0.39225    1.19573   1.00
C6       0.51244    0.38120    1.13654   1.00
C6       0.55910    0.40633    1.17259   1.00
C6       0.54830    0.39930    1.13495   1.00
H3       0.52862    0.39325    1.22697   1.00
H3       0.49559    0.37176    1.11200   1.00
H3       0.58566    0.42015    1.18213   1.00
H3       0.56472    0.40658    1.10925   1.00
N1       0.32173    0.40379    1.15643   1.00
C6       0.31195    0.41080    1.19346   1.00
C6       0.29887    0.42629    1.13427   1.00
C6       0.28285    0.43848    1.19505   1.00
C6       0.27454    0.44834    1.15741   1.00
H3       0.32535    0.39689    1.21800   1.00
H3       0.29994    0.42701    1.10303   1.00
H3       0.26923    0.45020    1.22075   1.00
H3       0.25311    0.46924    1.14787   1.00
C4       0.41503    0.64415    0.91480   1.00
C4       0.41497    0.68585    0.91520   1.00
C3a      0.39663    0.62246    0.88435   1.00
C3       0.44130    0.70732    0.89194   1.00
C3       0.43352    0.62268    0.94467   1.00
C3a      0.38856    0.70754    0.93903   1.00
C2       0.41508    0.55988    0.91501   1.00
C2       0.41508    0.77012    0.91502   1.00
C3       0.39689    0.58095    0.88498   1.00
C3       0.44124    0.74863    0.89180   1.00
C3       0.43342    0.58137    0.94479   1.00
C3       0.38899    0.74905    0.93850   1.00
C5       0.37591    0.64272    0.85104   1.00
H1       0.46179    0.69191    0.87346   1.00
H1       0.38269    0.56479    0.86188   1.00
H1       0.46176    0.76401    0.87338   1.00
H1       0.44774    0.56599    0.96836   1.00
H1       0.36872    0.76521    0.95652   1.00
C5       0.35909    0.68728    0.96494   1.00
H1       0.44780    0.63809    0.96828   1.00
H2       0.33480    0.70756    0.97192   1.00
H2       0.34568    0.66231    0.94924   1.00
H2       0.35467    0.62244    0.83733   1.00
H2       0.35853    0.66769    0.86219   1.00
N1       0.37732    0.67357    1.00105   1.00
C6       0.39225    0.69573    1.02944   1.00
C6       0.38120    0.63654    1.01244   1.00
C6       0.40633    0.67259    1.05910   1.00
C6       0.39930    0.63495    1.04830   1.00
H3       0.39325    0.72697    1.02862   1.00
H3       0.37176    0.61200    0.99559   1.00
H3       0.42015    0.68213    1.08566   1.00
H3       0.40658    0.60925    1.06472   1.00
N1       0.40379    0.65643    0.82173   1.00
C6       0.41080    0.69346    0.81195   1.00
C6       0.42629    0.63427    0.79887   1.00
C6       0.43848    0.69505    0.78285   1.00
C6       0.44834    0.65741    0.77454   1.00
H3       0.39689    0.71800    0.82535   1.00
H3       0.42701    0.60303    0.79994   1.00
H3       0.45020    0.72075    0.76923   1.00
H3       0.46924    0.64787    0.75311   1.00
C4       0.18585    0.41480    0.91497   1.00
C4       0.14415    0.41520    0.91503   1.00
C3a      0.20754    0.38435    0.93337   1.00
C3       0.12268    0.39194    0.88870   1.00
C3       0.20732    0.44467    0.89648   1.00
C3a      0.12246    0.43903    0.94144   1.00
C2       0.27012    0.41501    0.91492   1.00
C2       0.05988    0.41502    0.91492   1.00
C3       0.24905    0.38498    0.93311   1.00
C3       0.08137    0.39180    0.88876   1.00
C3       0.24863    0.44479    0.89658   1.00
C3       0.08095    0.43850    0.94101   1.00
C5       0.18728    0.35104    0.95409   1.00
H1       0.13809    0.37346    0.86821   1.00
H1       0.26521    0.36188    0.94731   1.00
H1       0.06599    0.37338    0.86824   1.00
H1       0.26401    0.46836    0.88226   1.00
H1       0.06479    0.45652    0.96128   1.00
C5       0.14272    0.46494    0.97091   1.00
H1       0.19191    0.46828    0.88220   1.00
H2       0.12244    0.47192    0.99520   1.00
H2       0.16769    0.44924    0.98432   1.00
H2       0.20756    0.33733    0.97533   1.00
H2       0.16231    0.36219    0.97147   1.00
N1       0.15643    0.50105    0.95268   1.00
C6       0.13427    0.52944    0.93775   1.00
C6       0.19346    0.51244    0.94880   1.00
C6       0.15741    0.55910    0.92367   1.00
C6       0.19505    0.54830    0.93070   1.00
H3       0.10303    0.52862    0.93675   1.00
H3       0.21800    0.49559    0.95824   1.00
H3       0.14787    0.58566    0.90985   1.00
H3       0.22075    0.56472    0.92342   1.00
N1       0.17357    0.32173    0.92621   1.00
C6       0.13654    0.31195    0.91920   1.00
C6       0.19573    0.29887    0.90371   1.00
C6       0.13495    0.28285    0.89152   1.00
C6       0.17259    0.27454    0.88166   1.00
H3       0.11200    0.32535    0.93311   1.00
H3       0.22697    0.29994    0.90299   1.00
H3       0.10925    0.26923    0.87980   1.00
H3       0.18213    0.25311    0.86076   1.00
C4       0.64415    0.41480    0.91503   1.00
C4       0.68585    0.41520    0.91497   1.00
C3a      0.62246    0.38435    0.89663   1.00
C3       0.70732    0.39194    0.94130   1.00
C3       0.62268    0.44467    0.93352   1.00
C3a      0.70754    0.43903    0.88856   1.00
C2       0.55988    0.41501    0.91508   1.00
C2       0.77012    0.41502    0.91508   1.00
C3       0.58095    0.38498    0.89689   1.00
C3       0.74863    0.39180    0.94124   1.00
C3       0.58137    0.44479    0.93342   1.00
C3       0.74905    0.43850    0.88899   1.00
C5       0.64272    0.35104    0.87591   1.00
H1       0.69191    0.37346    0.96179   1.00
H1       0.56479    0.36188    0.88269   1.00
H1       0.76401    0.37338    0.96176   1.00
H1       0.56599    0.46836    0.94774   1.00
H1       0.76521    0.45652    0.86872   1.00
C5       0.68728    0.46494    0.85909   1.00
H1       0.63809    0.46828    0.94780   1.00
H2       0.70756    0.47192    0.83480   1.00
H2       0.66231    0.44924    0.84568   1.00
H2       0.62244    0.33733    0.85467   1.00
H2       0.66769    0.36219    0.85853   1.00
N1       0.67357    0.50105    0.87732   1.00
C6       0.69573    0.52944    0.89225   1.00
C6       0.63654    0.51244    0.88120   1.00
C6       0.67259    0.55910    0.90633   1.00
C6       0.63495    0.54830    0.89930   1.00
H3       0.72697    0.52862    0.89325   1.00
H3       0.61200    0.49559    0.87176   1.00
H3       0.68213    0.58566    0.92015   1.00
H3       0.60925    0.56472    0.90658   1.00
N1       0.65643    0.32173    0.90379   1.00
C6       0.69346    0.31195    0.91080   1.00
C6       0.63427    0.29887    0.92629   1.00
C6       0.69505    0.28285    0.93848   1.00
C6       0.65741    0.27454    0.94834   1.00
H3       0.71800    0.32535    0.89689   1.00
H3       0.60303    0.29994    0.92701   1.00
H3       0.72075    0.26923    0.95020   1.00
H3       0.64787    0.25311    0.96924   1.00
C4       0.41497    0.18585    0.91480   1.00
C4       0.41503    0.14415    0.91520   1.00
C3a      0.43337    0.20754    0.88435   1.00
C3       0.38870    0.12268    0.89194   1.00
C3       0.39648    0.20732    0.94467   1.00
C3a      0.44144    0.12246    0.93903   1.00
C2       0.41492    0.27012    0.91501   1.00
C2       0.41492    0.05988    0.91502   1.00
C3       0.43311    0.24905    0.88498   1.00
C3       0.38876    0.08137    0.89180   1.00
C3       0.39658    0.24863    0.94479   1.00
C3       0.44101    0.08095    0.93850   1.00
C5       0.45409    0.18728    0.85104   1.00
H1       0.36821    0.13809    0.87346   1.00
H1       0.44731    0.26521    0.86188   1.00
H1       0.36824    0.06599    0.87338   1.00
H1       0.38226    0.26401    0.96836   1.00
H1       0.46128    0.06479    0.95652   1.00
C5       0.47091    0.14272    0.96494   1.00
H1       0.38220    0.19191    0.96828   1.00
H2       0.49520    0.12244    0.97192   1.00
H2       0.48432    0.16769    0.94924   1.00
H2       0.47533    0.20756    0.83733   1.00
H2       0.47147    0.16231    0.86219   1.00
N1       0.45268    0.15643    1.00105   1.00
C6       0.43775    0.13427    1.02944   1.00
C6       0.44880    0.19346    1.01244   1.00
C6       0.42367    0.15741    1.05910   1.00
C6       0.43070    0.19505    1.04830   1.00
H3       0.43675    0.10303    1.02862   1.00
H3       0.45824    0.21800    0.99559   1.00
H3       0.40985    0.14787    1.08566   1.00
H3       0.42342    0.22075    1.06472   1.00
N1       0.42621    0.17357    0.82173   1.00
C6       0.41920    0.13654    0.81195   1.00
C6       0.40371    0.19573    0.79887   1.00
C6       0.39152    0.13495    0.78285   1.00
C6       0.38166    0.17259    0.77454   1.00
H3       0.43311    0.11200    0.82535   1.00
H3       0.40299    0.22697    0.79994   1.00
H3       0.37980    0.10925    0.76923   1.00
H3       0.36076    0.18213    0.75311   1.00
C4       0.41480    0.41497    0.68585   1.00
C4       0.41520    0.41503    0.64415   1.00
C3a      0.38435    0.43337    0.70754   1.00
C3       0.39194    0.38870    0.62268   1.00
C3       0.44467    0.39648    0.70732   1.00
C3a      0.43903    0.44144    0.62246   1.00
C2       0.41501    0.41492    0.77012   1.00
C2       0.41502    0.41492    0.55988   1.00
C3       0.38498    0.43311    0.74905   1.00
C3       0.39180    0.38876    0.58137   1.00
C3       0.44479    0.39658    0.74863   1.00
C3       0.43850    0.44101    0.58095   1.00
C5       0.35104    0.45409    0.68728   1.00
H1       0.37346    0.36821    0.63809   1.00
H1       0.36188    0.44731    0.76521   1.00
H1       0.37338    0.36824    0.56599   1.00
H1       0.46836    0.38226    0.76401   1.00
H1       0.45652    0.46128    0.56479   1.00
C5       0.46494    0.47091    0.64272   1.00
H1       0.46828    0.38220    0.69191   1.00
H2       0.47192    0.49520    0.62244   1.00
H2       0.44924    0.48432    0.66769   1.00
H2       0.33733    0.47533    0.70756   1.00
H2       0.36219    0.47147    0.66231   1.00
N1       0.50105    0.45268    0.65643   1.00
C6       0.52944    0.43775    0.63427   1.00
C6       0.51244    0.44880    0.69346   1.00
C6       0.55910    0.42367    0.65741   1.00
C6       0.54830    0.43070    0.69505   1.00
H3       0.52862    0.43675    0.60303   1.00
H3       0.49559    0.45824    0.71800   1.00
H3       0.58566    0.40985    0.64787   1.00
H3       0.56472    0.42342    0.72075   1.00
N1       0.32173    0.42621    0.67357   1.00
C6       0.31195    0.41920    0.63654   1.00
C6       0.29887    0.40371    0.69573   1.00
C6       0.28285    0.39152    0.63495   1.00
C6       0.27454    0.38166    0.67259   1.00
H3       0.32535    0.43311    0.61200   1.00
H3       0.29994    0.40299    0.72697   1.00
H3       0.26923    0.37980    0.60925   1.00
H3       0.25311    0.36076    0.68213   1.00
C4       0.41480    0.91503    0.64415   1.00
C4       0.41520    0.91497    0.68585   1.00
C3a      0.38435    0.89663    0.62246   1.00
C3       0.39194    0.94130    0.70732   1.00
C3       0.44467    0.93352    0.62268   1.00
C3a      0.43903    0.88856    0.70754   1.00
C2       0.41501    0.91508    0.55988   1.00
C2       0.41502    0.91508    0.77012   1.00
C3       0.38498    0.89689    0.58095   1.00
C3       0.39180    0.94124    0.74863   1.00
C3       0.44479    0.93342    0.58137   1.00
C3       0.43850    0.88899    0.74905   1.00
C5       0.35104    0.87591    0.64272   1.00
H1       0.37346    0.96179    0.69191   1.00
H1       0.36188    0.88269    0.56479   1.00
H1       0.37338    0.96176    0.76401   1.00
H1       0.46836    0.94774    0.56599   1.00
H1       0.45652    0.86872    0.76521   1.00
C5       0.46494    0.85909    0.68728   1.00
H1       0.46828    0.94780    0.63809   1.00
H2       0.47192    0.83480    0.70756   1.00
H2       0.44924    0.84568    0.66231   1.00
H2       0.33733    0.85467    0.62244   1.00
H2       0.36219    0.85853    0.66769   1.00
N1       0.50105    0.87732    0.67357   1.00
C6       0.52944    0.89225    0.69573   1.00
C6       0.51244    0.88120    0.63654   1.00
C6       0.55910    0.90633    0.67259   1.00
C6       0.54830    0.89930    0.63495   1.00
H3       0.52862    0.89325    0.72697   1.00
H3       0.49559    0.87176    0.61200   1.00
H3       0.58566    0.92015    0.68213   1.00
H3       0.56472    0.90658    0.60925   1.00
N1       0.32173    0.90379    0.65643   1.00
C6       0.31195    0.91080    0.69346   1.00
C6       0.29887    0.92629    0.63427   1.00
C6       0.28285    0.93848    0.69505   1.00
C6       0.27454    0.94834    0.65741   1.00
H3       0.32535    0.89689    0.71800   1.00
H3       0.29994    0.92701    0.60303   1.00
H3       0.26923    0.95020    0.72075   1.00
H3       0.25311    0.96924    0.64787   1.00
C4       0.41503    1.14415    0.41480   1.00
C4       0.41497    1.18585    0.41520   1.00
C3a      0.39663    1.12246    0.38435   1.00
C3       0.44130    1.20732    0.39194   1.00
C3       0.43352    1.12268    0.44467   1.00
C3a      0.38856    1.20754    0.43903   1.00
C2       0.41508    1.05988    0.41501   1.00
C2       0.41508    1.27012    0.41502   1.00
C3       0.39689    1.08095    0.38498   1.00
C3       0.44124    1.24863    0.39180   1.00
C3       0.43342    1.08137    0.44479   1.00
C3       0.38899    1.24905    0.43850   1.00
C5       0.37591    1.14272    0.35104   1.00
H1       0.46179    1.19191    0.37346   1.00
H1       0.38269    1.06479    0.36188   1.00
H1       0.46176    1.26401    0.37338   1.00
H1       0.44774    1.06599    0.46836   1.00
H1       0.36872    1.26521    0.45652   1.00
C5       0.35909    1.18728    0.46494   1.00
H1       0.44780    1.13809    0.46828   1.00
H2       0.33480    1.20756    0.47192   1.00
H2       0.34568    1.16231    0.44924   1.00
H2       0.35467    1.12244    0.33733   1.00
H2       0.35853    1.16769    0.36219   1.00
N1       0.37732    1.17357    0.50105   1.00
C6       0.39225    1.19573    0.52944   1.00
C6       0.38120    1.13654    0.51244   1.00
C6       0.40633    1.17259    0.55910   1.00
C6       0.39930    1.13495    0.54830   1.00
H3       0.39325    1.22697    0.52862   1.00
H3       0.37176    1.11200    0.49559   1.00
H3       0.42015    1.18213    0.58566   1.00
H3       0.40658    1.10925    0.56472   1.00
N1       0.40379    1.15643    0.32173   1.00
C6       0.41080    1.19346    0.31195   1.00
C6       0.42629    1.13427    0.29887   1.00
C6       0.43848    1.19505    0.28285   1.00
C6       0.44834    1.15741    0.27454   1.00
H3       0.39689    1.21800    0.32535   1.00
H3       0.42701    1.10303    0.29994   1.00
H3       0.45020    1.22075    0.26923   1.00
H3       0.46924    1.14787    0.25311   1.00
C4       0.18585    0.91480    0.41497   1.00
C4       0.14415    0.91520    0.41503   1.00
C3a      0.20754    0.88435    0.43337   1.00
C3       0.12268    0.89194    0.38870   1.00
C3       0.20732    0.94467    0.39648   1.00
C3a      0.12246    0.93903    0.44144   1.00
C2       0.27012    0.91501    0.41492   1.00
C2       0.05988    0.91502    0.41492   1.00
C3       0.24905    0.88498    0.43311   1.00
C3       0.08137    0.89180    0.38876   1.00
C3       0.24863    0.94479    0.39658   1.00
C3       0.08095    0.93850    0.44101   1.00
C5       0.18728    0.85104    0.45409   1.00
H1       0.13809    0.87346    0.36821   1.00
H1       0.26521    0.86188    0.44731   1.00
H1       0.06599    0.87338    0.36824   1.00
H1       0.26401    0.96836    0.38226   1.00
H1       0.06479    0.95652    0.46128   1.00
C5       0.14272    0.96494    0.47091   1.00
H1       0.19191    0.96828    0.38220   1.00
H2       0.12244    0.97192    0.49520   1.00
H2       0.16769    0.94924    0.48432   1.00
H2       0.20756    0.83733    0.47533   1.00
H2       0.16231    0.86219    0.47147   1.00
N1       0.15643    1.00105    0.45268   1.00
C6       0.13427    1.02944    0.43775   1.00
C6       0.19346    1.01244    0.44880   1.00
C6       0.15741    1.05910    0.42367   1.00
C6       0.19505    1.04830    0.43070   1.00
H3       0.10303    1.02862    0.43675   1.00
H3       0.21800    0.99559    0.45824   1.00
H3       0.14787    1.08566    0.40985   1.00
H3       0.22075    1.06472    0.42342   1.00
N1       0.17357    0.82173    0.42621   1.00
C6       0.13654    0.81195    0.41920   1.00
C6       0.19573    0.79887    0.40371   1.00
C6       0.13495    0.78285    0.39152   1.00
C6       0.17259    0.77454    0.38166   1.00
H3       0.11200    0.82535    0.43311   1.00
H3       0.22697    0.79994    0.40299   1.00
H3       0.10925    0.76923    0.37980   1.00
H3       0.18213    0.75311    0.36076   1.00
C4       0.64415    0.91480    0.41503   1.00
C4       0.68585    0.91520    0.41497   1.00
C3a      0.62246    0.88435    0.39663   1.00
C3       0.70732    0.89194    0.44130   1.00
C3       0.62268    0.94467    0.43352   1.00
C3a      0.70754    0.93903    0.38856   1.00
C2       0.55988    0.91501    0.41508   1.00
C2       0.77012    0.91502    0.41508   1.00
C3       0.58095    0.88498    0.39689   1.00
C3       0.74863    0.89180    0.44124   1.00
C3       0.58137    0.94479    0.43342   1.00
C3       0.74905    0.93850    0.38899   1.00
C5       0.64272    0.85104    0.37591   1.00
H1       0.69191    0.87346    0.46179   1.00
H1       0.56479    0.86188    0.38269   1.00
H1       0.76401    0.87338    0.46176   1.00
H1       0.56599    0.96836    0.44774   1.00
H1       0.76521    0.95652    0.36872   1.00
C5       0.68728    0.96494    0.35909   1.00
H1       0.63809    0.96828    0.44780   1.00
H2       0.70756    0.97192    0.33480   1.00
H2       0.66231    0.94924    0.34568   1.00
H2       0.62244    0.83733    0.35467   1.00
H2       0.66769    0.86219    0.35853   1.00
N1       0.67357    1.00105    0.37732   1.00
C6       0.69573    1.02944    0.39225   1.00
C6       0.63654    1.01244    0.38120   1.00
C6       0.67259    1.05910    0.40633   1.00
C6       0.63495    1.04830    0.39930   1.00
H3       0.72697    1.02862    0.39325   1.00
H3       0.61200    0.99559    0.37176   1.00
H3       0.68213    1.08566    0.42015   1.00
H3       0.60925    1.06472    0.40658   1.00
N1       0.65643    0.82173    0.40379   1.00
C6       0.69346    0.81195    0.41080   1.00
C6       0.63427    0.79887    0.42629   1.00
C6       0.69505    0.78285    0.43848   1.00
C6       0.65741    0.77454    0.44834   1.00
H3       0.71800    0.82535    0.39689   1.00
H3       0.60303    0.79994    0.42701   1.00
H3       0.72075    0.76923    0.45020   1.00
H3       0.64787    0.75311    0.46924   1.00
C4       0.41497    0.68585    0.41480   1.00
C4       0.41503    0.64415    0.41520   1.00
C3a      0.43337    0.70754    0.38435   1.00
C3       0.38870    0.62268    0.39194   1.00
C3       0.39648    0.70732    0.44467   1.00
C3a      0.44144    0.62246    0.43903   1.00
C2       0.41492    0.77012    0.41501   1.00
C2       0.41492    0.55988    0.41502   1.00
C3       0.43311    0.74905    0.38498   1.00
C3       0.38876    0.58137    0.39180   1.00
C3       0.39658    0.74863    0.44479   1.00
C3       0.44101    0.58095    0.43850   1.00
C5       0.45409    0.68728    0.35104   1.00
H1       0.36821    0.63809    0.37346   1.00
H1       0.44731    0.76521    0.36188   1.00
H1       0.36824    0.56599    0.37338   1.00
H1       0.38226    0.76401    0.46836   1.00
H1       0.46128    0.56479    0.45652   1.00
C5       0.47091    0.64272    0.46494   1.00
H1       0.38220    0.69191    0.46828   1.00
H2       0.49520    0.62244    0.47192   1.00
H2       0.48432    0.66769    0.44924   1.00
H2       0.47533    0.70756    0.33733   1.00
H2       0.47147    0.66231    0.36219   1.00
N1       0.45268    0.65643    0.50105   1.00
C6       0.43775    0.63427    0.52944   1.00
C6       0.44880    0.69346    0.51244   1.00
C6       0.42367    0.65741    0.55910   1.00
C6       0.43070    0.69505    0.54830   1.00
H3       0.43675    0.60303    0.52862   1.00
H3       0.45824    0.71800    0.49559   1.00
H3       0.40985    0.64787    0.58566   1.00
H3       0.42342    0.72075    0.56472   1.00
N1       0.42621    0.67357    0.32173   1.00
C6       0.41920    0.63654    0.31195   1.00
C6       0.40371    0.69573    0.29887   1.00
C6       0.39152    0.63495    0.28285   1.00
C6       0.38166    0.67259    0.27454   1.00
H3       0.43311    0.61200    0.32535   1.00
H3       0.40299    0.72697    0.29994   1.00
H3       0.37980    0.60925    0.26923   1.00
H3       0.36076    0.68213    0.25311   1.00
C4       0.41480    0.91497    0.18585   1.00
C4       0.41520    0.91503    0.14415   1.00
C3a      0.38435    0.93337    0.20754   1.00
C3       0.39194    0.88870    0.12268   1.00
C3       0.44467    0.89648    0.20732   1.00
C3a      0.43903    0.94144    0.12246   1.00
C2       0.41501    0.91492    0.27012   1.00
C2       0.41502    0.91492    0.05988   1.00
C3       0.38498    0.93311    0.24905   1.00
C3       0.39180    0.88876    0.08137   1.00
C3       0.44479    0.89658    0.24863   1.00
C3       0.43850    0.94101    0.08095   1.00
C5       0.35104    0.95409    0.18728   1.00
H1       0.37346    0.86821    0.13809   1.00
H1       0.36188    0.94731    0.26521   1.00
H1       0.37338    0.86824    0.06599   1.00
H1       0.46836    0.88226    0.26401   1.00
H1       0.45652    0.96128    0.06479   1.00
C5       0.46494    0.97091    0.14272   1.00
H1       0.46828    0.88220    0.19191   1.00
H2       0.47192    0.99520    0.12244   1.00
H2       0.44924    0.98432    0.16769   1.00
H2       0.33733    0.97533    0.20756   1.00
H2       0.36219    0.97147    0.16231   1.00
N1       0.50105    0.95268    0.15643   1.00
C6       0.52944    0.93775    0.13427   1.00
C6       0.51244    0.94880    0.19346   1.00
C6       0.55910    0.92367    0.15741   1.00
C6       0.54830    0.93070    0.19505   1.00
H3       0.52862    0.93675    0.10303   1.00
H3       0.49559    0.95824    0.21800   1.00
H3       0.58566    0.90985    0.14787   1.00
H3       0.56472    0.92342    0.22075   1.00
N1       0.32173    0.92621    0.17357   1.00
C6       0.31195    0.91920    0.13654   1.00
C6       0.29887    0.90371    0.19573   1.00
C6       0.28285    0.89152    0.13495   1.00
C6       0.27454    0.88166    0.17259   1.00
H3       0.32535    0.93311    0.11200   1.00
H3       0.29994    0.90299    0.22697   1.00
H3       0.26923    0.87980    0.10925   1.00
H3       0.25311    0.86076    0.18213   1.00
C4       0.91480    0.41503    0.64415   1.00
C4       0.91520    0.41497    0.68585   1.00
C3a      0.88435    0.39663    0.62246   1.00
C3       0.89194    0.44130    0.70732   1.00
C3       0.94467    0.43352    0.62268   1.00
C3a      0.93903    0.38856    0.70754   1.00
C2       0.91501    0.41508    0.55988   1.00
C2       0.91502    0.41508    0.77012   1.00
C3       0.88498    0.39689    0.58095   1.00
C3       0.89180    0.44124    0.74863   1.00
C3       0.94479    0.43342    0.58137   1.00
C3       0.93850    0.38899    0.74905   1.00
C5       0.85104    0.37591    0.64272   1.00
H1       0.87346    0.46179    0.69191   1.00
H1       0.86188    0.38269    0.56479   1.00
H1       0.87338    0.46176    0.76401   1.00
H1       0.96836    0.44774    0.56599   1.00
H1       0.95652    0.36872    0.76521   1.00
C5       0.96494    0.35909    0.68728   1.00
H1       0.96828    0.44780    0.63809   1.00
H2       0.97192    0.33480    0.70756   1.00
H2       0.94924    0.34568    0.66231   1.00
H2       0.83733    0.35467    0.62244   1.00
H2       0.86219    0.35853    0.66769   1.00
N1       1.00105    0.37732    0.67357   1.00
C6       1.02944    0.39225    0.69573   1.00
C6       1.01244    0.38120    0.63654   1.00
C6       1.05910    0.40633    0.67259   1.00
C6       1.04830    0.39930    0.63495   1.00
H3       1.02862    0.39325    0.72697   1.00
H3       0.99559    0.37176    0.61200   1.00
H3       1.08566    0.42015    0.68213   1.00
H3       1.06472    0.40658    0.60925   1.00
N1       0.82173    0.40379    0.65643   1.00
C6       0.81195    0.41080    0.69346   1.00
C6       0.79887    0.42629    0.63427   1.00
C6       0.78285    0.43848    0.69505   1.00
C6       0.77454    0.44834    0.65741   1.00
H3       0.82535    0.39689    0.71800   1.00
H3       0.79994    0.42701    0.60303   1.00
H3       0.76923    0.45020    0.72075   1.00
H3       0.75311    0.46924    0.64787   1.00
C4       0.91503    0.64415    0.41480   1.00
C4       0.91497    0.68585    0.41520   1.00
C3a      0.89663    0.62246    0.38435   1.00
C3       0.94130    0.70732    0.39194   1.00
C3       0.93352    0.62268    0.44467   1.00
C3a      0.88856    0.70754    0.43903   1.00
C2       0.91508    0.55988    0.41501   1.00
C2       0.91508    0.77012    0.41502   1.00
C3       0.89689    0.58095    0.38498   1.00
C3       0.94124    0.74863    0.39180   1.00
C3       0.93342    0.58137    0.44479   1.00
C3       0.88899    0.74905    0.43850   1.00
C5       0.87591    0.64272    0.35104   1.00
H1       0.96179    0.69191    0.37346   1.00
H1       0.88269    0.56479    0.36188   1.00
H1       0.96176    0.76401    0.37338   1.00
H1       0.94774    0.56599    0.46836   1.00
H1       0.86872    0.76521    0.45652   1.00
C5       0.85909    0.68728    0.46494   1.00
H1       0.94780    0.63809    0.46828   1.00
H2       0.83480    0.70756    0.47192   1.00
H2       0.84568    0.66231    0.44924   1.00
H2       0.85467    0.62244    0.33733   1.00
H2       0.85853    0.66769    0.36219   1.00
N1       0.87732    0.67357    0.50105   1.00
C6       0.89225    0.69573    0.52944   1.00
C6       0.88120    0.63654    0.51244   1.00
C6       0.90633    0.67259    0.55910   1.00
C6       0.89930    0.63495    0.54830   1.00
H3       0.89325    0.72697    0.52862   1.00
H3       0.87176    0.61200    0.49559   1.00
H3       0.92015    0.68213    0.58566   1.00
H3       0.90658    0.60925    0.56472   1.00
N1       0.90379    0.65643    0.32173   1.00
C6       0.91080    0.69346    0.31195   1.00
C6       0.92629    0.63427    0.29887   1.00
C6       0.93848    0.69505    0.28285   1.00
C6       0.94834    0.65741    0.27454   1.00
H3       0.89689    0.71800    0.32535   1.00
H3       0.92701    0.60303    0.29994   1.00
H3       0.95020    0.72075    0.26923   1.00
H3       0.96924    0.64787    0.25311   1.00
C4       0.68585    0.41480    0.41497   1.00
C4       0.64415    0.41520    0.41503   1.00
C3a      0.70754    0.38435    0.43337   1.00
C3       0.62268    0.39194    0.38870   1.00
C3       0.70732    0.44467    0.39648   1.00
C3a      0.62246    0.43903    0.44144   1.00
C2       0.77012    0.41501    0.41492   1.00
C2       0.55988    0.41502    0.41492   1.00
C3       0.74905    0.38498    0.43311   1.00
C3       0.58137    0.39180    0.38876   1.00
C3       0.74863    0.44479    0.39658   1.00
C3       0.58095    0.43850    0.44101   1.00
C5       0.68728    0.35104    0.45409   1.00
H1       0.63809    0.37346    0.36821   1.00
H1       0.76521    0.36188    0.44731   1.00
H1       0.56599    0.37338    0.36824   1.00
H1       0.76401    0.46836    0.38226   1.00
H1       0.56479    0.45652    0.46128   1.00
C5       0.64272    0.46494    0.47091   1.00
H1       0.69191    0.46828    0.38220   1.00
H2       0.62244    0.47192    0.49520   1.00
H2       0.66769    0.44924    0.48432   1.00
H2       0.70756    0.33733    0.47533   1.00
H2       0.66231    0.36219    0.47147   1.00
N1       0.65643    0.50105    0.45268   1.00
C6       0.63427    0.52944    0.43775   1.00
C6       0.69346    0.51244    0.44880   1.00
C6       0.65741    0.55910    0.42367   1.00
C6       0.69505    0.54830    0.43070   1.00
H3       0.60303    0.52862    0.43675   1.00
H3       0.71800    0.49559    0.45824   1.00
H3       0.64787    0.58566    0.40985   1.00
H3       0.72075    0.56472    0.42342   1.00
N1       0.67357    0.32173    0.42621   1.00
C6       0.63654    0.31195    0.41920   1.00
C6       0.69573    0.29887    0.40371   1.00
C6       0.63495    0.28285    0.39152   1.00
C6       0.67259    0.27454    0.38166   1.00
H3       0.61200    0.32535    0.43311   1.00
H3       0.72697    0.29994    0.40299   1.00
H3       0.60925    0.26923    0.37980   1.00
H3       0.68213    0.25311    0.36076   1.00
C4       1.14415    0.41480    0.41503   1.00
C4       1.18585    0.41520    0.41497   1.00
C3a      1.12246    0.38435    0.39663   1.00
C3       1.20732    0.39194    0.44130   1.00
C3       1.12268    0.44467    0.43352   1.00
C3a      1.20754    0.43903    0.38856   1.00
C2       1.05988    0.41501    0.41508   1.00
C2       1.27012    0.41502    0.41508   1.00
C3       1.08095    0.38498    0.39689   1.00
C3       1.24863    0.39180    0.44124   1.00
C3       1.08137    0.44479    0.43342   1.00
C3       1.24905    0.43850    0.38899   1.00
C5       1.14272    0.35104    0.37591   1.00
H1       1.19191    0.37346    0.46179   1.00
H1       1.06479    0.36188    0.38269   1.00
H1       1.26401    0.37338    0.46176   1.00
H1       1.06599    0.46836    0.44774   1.00
H1       1.26521    0.45652    0.36872   1.00
C5       1.18728    0.46494    0.35909   1.00
H1       1.13809    0.46828    0.44780   1.00
H2       1.20756    0.47192    0.33480   1.00
H2       1.16231    0.44924    0.34568   1.00
H2       1.12244    0.33733    0.35467   1.00
H2       1.16769    0.36219    0.35853   1.00
N1       1.17357    0.50105    0.37732   1.00
C6       1.19573    0.52944    0.39225   1.00
C6       1.13654    0.51244    0.38120   1.00
C6       1.17259    0.55910    0.40633   1.00
C6       1.13495    0.54830    0.39930   1.00
H3       1.22697    0.52862    0.39325   1.00
H3       1.11200    0.49559    0.37176   1.00
H3       1.18213    0.58566    0.42015   1.00
H3       1.10925    0.56472    0.40658   1.00
N1       1.15643    0.32173    0.40379   1.00
C6       1.19346    0.31195    0.41080   1.00
C6       1.13427    0.29887    0.42629   1.00
C6       1.19505    0.28285    0.43848   1.00
C6       1.15741    0.27454    0.44834   1.00
H3       1.21800    0.32535    0.39689   1.00
H3       1.10303    0.29994    0.42701   1.00
H3       1.22075    0.26923    0.45020   1.00
H3       1.14787    0.25311    0.46924   1.00
C4       0.91497    0.18585    0.41480   1.00
C4       0.91503    0.14415    0.41520   1.00
C3a      0.93337    0.20754    0.38435   1.00
C3       0.88870    0.12268    0.39194   1.00
C3       0.89648    0.20732    0.44467   1.00
C3a      0.94144    0.12246    0.43903   1.00
C2       0.91492    0.27012    0.41501   1.00
C2       0.91492    0.05988    0.41502   1.00
C3       0.93311    0.24905    0.38498   1.00
C3       0.88876    0.08137    0.39180   1.00
C3       0.89658    0.24863    0.44479   1.00
C3       0.94101    0.08095    0.43850   1.00
C5       0.95409    0.18728    0.35104   1.00
H1       0.86821    0.13809    0.37346   1.00
H1       0.94731    0.26521    0.36188   1.00
H1       0.86824    0.06599    0.37338   1.00
H1       0.88226    0.26401    0.46836   1.00
H1       0.96128    0.06479    0.45652   1.00
C5       0.97091    0.14272    0.46494   1.00
H1       0.88220    0.19191    0.46828   1.00
H2       0.99520    0.12244    0.47192   1.00
H2       0.98432    0.16769    0.44924   1.00
H2       0.97533    0.20756    0.33733   1.00
H2       0.97147    0.16231    0.36219   1.00
N1       0.95268    0.15643    0.50105   1.00
C6       0.93775    0.13427    0.52944   1.00
C6       0.94880    0.19346    0.51244   1.00
C6       0.92367    0.15741    0.55910   1.00
C6       0.93070    0.19505    0.54830   1.00
H3       0.93675    0.10303    0.52862   1.00
H3       0.95824    0.21800    0.49559   1.00
H3       0.90985    0.14787    0.58566   1.00
H3       0.92342    0.22075    0.56472   1.00
N1       0.92621    0.17357    0.32173   1.00
C6       0.91920    0.13654    0.31195   1.00
C6       0.90371    0.19573    0.29887   1.00
C6       0.89152    0.13495    0.28285   1.00
C6       0.88166    0.17259    0.27454   1.00
H3       0.93311    0.11200    0.32535   1.00
H3       0.90299    0.22697    0.29994   1.00
H3       0.87980    0.10925    0.26923   1.00
H3       0.86076    0.18213    0.25311   1.00
C4       0.91480    0.41497    0.18585   1.00
C4       0.91520    0.41503    0.14415   1.00
C3a      0.88435    0.43337    0.20754   1.00
C3       0.89194    0.38870    0.12268   1.00
C3       0.94467    0.39648    0.20732   1.00
C3a      0.93903    0.44144    0.12246   1.00
C2       0.91501    0.41492    0.27012   1.00
C2       0.91502    0.41492    0.05988   1.00
C3       0.88498    0.43311    0.24905   1.00
C3       0.89180    0.38876    0.08137   1.00
C3       0.94479    0.39658    0.24863   1.00
C3       0.93850    0.44101    0.08095   1.00
C5       0.85104    0.45409    0.18728   1.00
H1       0.87346    0.36821    0.13809   1.00
H1       0.86188    0.44731    0.26521   1.00
H1       0.87338    0.36824    0.06599   1.00
H1       0.96836    0.38226    0.26401   1.00
H1       0.95652    0.46128    0.06479   1.00
C5       0.96494    0.47091    0.14272   1.00
H1       0.96828    0.38220    0.19191   1.00
H2       0.97192    0.49520    0.12244   1.00
H2       0.94924    0.48432    0.16769   1.00
H2       0.83733    0.47533    0.20756   1.00
H2       0.86219    0.47147    0.16231   1.00
N1       1.00105    0.45268    0.15643   1.00
C6       1.02944    0.43775    0.13427   1.00
C6       1.01244    0.44880    0.19346   1.00
C6       1.05910    0.42367    0.15741   1.00
C6       1.04830    0.43070    0.19505   1.00
H3       1.02862    0.43675    0.10303   1.00
H3       0.99559    0.45824    0.21800   1.00
H3       1.08566    0.40985    0.14787   1.00
H3       1.06472    0.42342    0.22075   1.00
N1       0.82173    0.42621    0.17357   1.00
C6       0.81195    0.41920    0.13654   1.00
C6       0.79887    0.40371    0.19573   1.00
C6       0.78285    0.39152    0.13495   1.00
C6       0.77454    0.38166    0.17259   1.00
H3       0.82535    0.43311    0.11200   1.00
H3       0.79994    0.40299    0.22697   1.00
H3       0.76923    0.37980    0.10925   1.00
H3       0.75311    0.36076    0.18213   1.00
