data_IRMOF10_SG202_interpen_Ligand8cp_label_r.

_audit_creation_method             'generated by an auxiliary program of Tobunporous'

_symmetry_space_group_name_H-M     'P 1'
_symmetry_Int_Tables_number        1
_symmetry_cell_setting             triclinic

_cell_length_a                    34.2800
_cell_length_b                    34.2800
_cell_length_c                    34.2800
_cell_angle_alpha                 90.0000
_cell_angle_beta                  90.0000
_cell_angle_gamma                 90.0000

loop_
_atom_site_label
_atom_site_fract_x
_atom_site_fract_y
_atom_site_fract_z
_atom_site_occupancy
O1       0.75000    0.75000    0.75000   1.00
Zn1      0.71720    0.78280    0.78280   1.00
Zn1      0.78280    0.71720    0.78280   1.00
Zn1      0.78280    0.78280    0.71720   1.00
Zn1      0.71720    0.71720    0.71720   1.00
O2       0.72650    0.77350    0.83820   1.00
O2       0.72650    0.83820    0.77350   1.00
O2       0.66180    0.77350    0.77350   1.00
O2       0.77350    0.72650    0.83820   1.00
O2       0.83820    0.72650    0.77350   1.00
O2       0.77350    0.66180    0.77350   1.00
O2       0.77350    0.83820    0.72650   1.00
O2       0.83820    0.77350    0.72650   1.00
O2       0.77350    0.77350    0.66180   1.00
O2       0.66180    0.72650    0.72650   1.00
O2       0.72650    0.66180    0.72650   1.00
O2       0.72650    0.72650    0.66180   1.00
C1       0.75000    0.75000    0.85520   1.00
C1       0.75000    0.85520    0.75000   1.00
C1       0.64480    0.75000    0.75000   1.00
C1       0.85520    0.75000    0.75000   1.00
C1       0.75000    0.64480    0.75000   1.00
C1       0.75000    0.75000    0.64480   1.00
O1       0.25000    0.25000    0.75000   1.00
Zn1      0.21720    0.28280    0.78280   1.00
Zn1      0.28280    0.21720    0.78280   1.00
Zn1      0.28280    0.28280    0.71720   1.00
Zn1      0.21720    0.21720    0.71720   1.00
O2       0.22650    0.27350    0.83820   1.00
O2       0.22650    0.33820    0.77350   1.00
O2       0.16180    0.27350    0.77350   1.00
O2       0.27350    0.22650    0.83820   1.00
O2       0.33820    0.22650    0.77350   1.00
O2       0.27350    0.16180    0.77350   1.00
O2       0.27350    0.33820    0.72650   1.00
O2       0.33820    0.27350    0.72650   1.00
O2       0.27350    0.27350    0.66180   1.00
O2       0.16180    0.22650    0.72650   1.00
O2       0.22650    0.16180    0.72650   1.00
O2       0.22650    0.22650    0.66180   1.00
C1       0.25000    0.25000    0.85520   1.00
C1       0.25000    0.35520    0.75000   1.00
C1       0.14480    0.25000    0.75000   1.00
C1       0.35520    0.25000    0.75000   1.00
C1       0.25000    0.14480    0.75000   1.00
C1       0.25000    0.25000    0.64480   1.00
O1       0.25000    0.75000    0.25000   1.00
Zn1      0.21720    0.78280    0.28280   1.00
Zn1      0.28280    0.71720    0.28280   1.00
Zn1      0.28280    0.78280    0.21720   1.00
Zn1      0.21720    0.71720    0.21720   1.00
O2       0.22650    0.77350    0.33820   1.00
O2       0.22650    0.83820    0.27350   1.00
O2       0.16180    0.77350    0.27350   1.00
O2       0.27350    0.72650    0.33820   1.00
O2       0.33820    0.72650    0.27350   1.00
O2       0.27350    0.66180    0.27350   1.00
O2       0.27350    0.83820    0.22650   1.00
O2       0.33820    0.77350    0.22650   1.00
O2       0.27350    0.77350    0.16180   1.00
O2       0.16180    0.72650    0.22650   1.00
O2       0.22650    0.66180    0.22650   1.00
O2       0.22650    0.72650    0.16180   1.00
C1       0.25000    0.75000    0.35520   1.00
C1       0.25000    0.85520    0.25000   1.00
C1       0.14480    0.75000    0.25000   1.00
C1       0.35520    0.75000    0.25000   1.00
C1       0.25000    0.64480    0.25000   1.00
C1       0.25000    0.75000    0.14480   1.00
O1       0.75000    0.25000    0.25000   1.00
Zn1      0.71720    0.28280    0.28280   1.00
Zn1      0.78280    0.21720    0.28280   1.00
Zn1      0.78280    0.28280    0.21720   1.00
Zn1      0.71720    0.21720    0.21720   1.00
O2       0.72650    0.27350    0.33820   1.00
O2       0.72650    0.33820    0.27350   1.00
O2       0.66180    0.27350    0.27350   1.00
O2       0.77350    0.22650    0.33820   1.00
O2       0.83820    0.22650    0.27350   1.00
O2       0.77350    0.16180    0.27350   1.00
O2       0.77350    0.33820    0.22650   1.00
O2       0.83820    0.27350    0.22650   1.00
O2       0.77350    0.27350    0.16180   1.00
O2       0.66180    0.22650    0.22650   1.00
O2       0.72650    0.16180    0.22650   1.00
O2       0.72650    0.22650    0.16180   1.00
C1       0.75000    0.25000    0.35520   1.00
C1       0.75000    0.35520    0.25000   1.00
C1       0.64480    0.25000    0.25000   1.00
C1       0.85520    0.25000    0.25000   1.00
C1       0.75000    0.14480    0.25000   1.00
C1       0.75000    0.25000    0.14480   1.00
O1       0.25000    0.25000    0.25000   1.00
Zn1      0.28280    0.21720    0.21720   1.00
Zn1      0.21720    0.28280    0.21720   1.00
Zn1      0.21720    0.21720    0.28280   1.00
Zn1      0.28280    0.28280    0.28280   1.00
O2       0.27350    0.22650    0.16180   1.00
O2       0.27350    0.16180    0.22650   1.00
O2       0.33820    0.22650    0.22650   1.00
O2       0.22650    0.27350    0.16180   1.00
O2       0.16180    0.27350    0.22650   1.00
O2       0.22650    0.33820    0.22650   1.00
O2       0.22650    0.16180    0.27350   1.00
O2       0.16180    0.22650    0.27350   1.00
O2       0.22650    0.22650    0.33820   1.00
O2       0.33820    0.27350    0.27350   1.00
O2       0.27350    0.33820    0.27350   1.00
O2       0.27350    0.27350    0.33820   1.00
C1       0.25000    0.25000    0.14480   1.00
C1       0.25000    0.14480    0.25000   1.00
C1       0.35520    0.25000    0.25000   1.00
C1       0.14480    0.25000    0.25000   1.00
C1       0.25000    0.35520    0.25000   1.00
C1       0.25000    0.25000    0.35520   1.00
O1       0.75000    0.75000    0.25000   1.00
Zn1      0.78280    0.71720    0.21720   1.00
Zn1      0.71720    0.78280    0.21720   1.00
Zn1      0.71720    0.71720    0.28280   1.00
Zn1      0.78280    0.78280    0.28280   1.00
O2       0.77350    0.72650    0.16180   1.00
O2       0.77350    0.66180    0.22650   1.00
O2       0.83820    0.72650    0.22650   1.00
O2       0.72650    0.77350    0.16180   1.00
O2       0.66180    0.77350    0.22650   1.00
O2       0.72650    0.83820    0.22650   1.00
O2       0.72650    0.66180    0.27350   1.00
O2       0.66180    0.72650    0.27350   1.00
O2       0.72650    0.72650    0.33820   1.00
O2       0.83820    0.77350    0.27350   1.00
O2       0.77350    0.83820    0.27350   1.00
O2       0.77350    0.77350    0.33820   1.00
C1       0.75000    0.75000    0.14480   1.00
C1       0.75000    0.64480    0.25000   1.00
C1       0.85520    0.75000    0.25000   1.00
C1       0.64480    0.75000    0.25000   1.00
C1       0.75000    0.85520    0.25000   1.00
C1       0.75000    0.75000    0.35520   1.00
O1       0.75000    0.25000    0.75000   1.00
Zn1      0.78280    0.21720    0.71720   1.00
Zn1      0.71720    0.28280    0.71720   1.00
Zn1      0.71720    0.21720    0.78280   1.00
Zn1      0.78280    0.28280    0.78280   1.00
O2       0.77350    0.22650    0.66180   1.00
O2       0.77350    0.16180    0.72650   1.00
O2       0.83820    0.22650    0.72650   1.00
O2       0.72650    0.27350    0.66180   1.00
O2       0.66180    0.27350    0.72650   1.00
O2       0.72650    0.33820    0.72650   1.00
O2       0.72650    0.16180    0.77350   1.00
O2       0.66180    0.22650    0.77350   1.00
O2       0.72650    0.22650    0.83820   1.00
O2       0.83820    0.27350    0.77350   1.00
O2       0.77350    0.33820    0.77350   1.00
O2       0.77350    0.27350    0.83820   1.00
C1       0.75000    0.25000    0.64480   1.00
C1       0.75000    0.14480    0.75000   1.00
C1       0.85520    0.25000    0.75000   1.00
C1       0.64480    0.25000    0.75000   1.00
C1       0.75000    0.35520    0.75000   1.00
C1       0.75000    0.25000    0.85520   1.00
O1       0.25000    0.75000    0.75000   1.00
Zn1      0.28280    0.71720    0.71720   1.00
Zn1      0.21720    0.78280    0.71720   1.00
Zn1      0.21720    0.71720    0.78280   1.00
Zn1      0.28280    0.78280    0.78280   1.00
O2       0.27350    0.72650    0.66180   1.00
O2       0.27350    0.66180    0.72650   1.00
O2       0.33820    0.72650    0.72650   1.00
O2       0.22650    0.77350    0.66180   1.00
O2       0.16180    0.77350    0.72650   1.00
O2       0.22650    0.83820    0.72650   1.00
O2       0.22650    0.66180    0.77350   1.00
O2       0.16180    0.72650    0.77350   1.00
O2       0.22650    0.72650    0.83820   1.00
O2       0.33820    0.77350    0.77350   1.00
O2       0.27350    0.83820    0.77350   1.00
O2       0.27350    0.77350    0.83820   1.00
C1       0.25000    0.75000    0.64480   1.00
C1       0.25000    0.64480    0.75000   1.00
C1       0.35520    0.75000    0.75000   1.00
C1       0.14480    0.75000    0.75000   1.00
C1       0.25000    0.85520    0.75000   1.00
C1       0.25000    0.75000    0.85520   1.00
O1       0.91500    0.91500    0.91500   1.00
Zn1      0.88220    0.94780    0.94780   1.00
Zn1      0.94780    0.88220    0.94780   1.00
Zn1      0.94780    0.94780    0.88220   1.00
Zn1      0.88220    0.88220    0.88220   1.00
O2       0.89150    0.93850    1.00320   1.00
O2       0.89150    1.00320    0.93850   1.00
O2       0.82680    0.93850    0.93850   1.00
O2       0.93850    0.89150    1.00320   1.00
O2       1.00320    0.89150    0.93850   1.00
O2       0.93850    0.82680    0.93850   1.00
O2       0.93850    1.00320    0.89150   1.00
O2       1.00320    0.93850    0.89150   1.00
O2       0.93850    0.93850    0.82680   1.00
O2       0.82680    0.89150    0.89150   1.00
O2       0.89150    0.82680    0.89150   1.00
O2       0.89150    0.89150    0.82680   1.00
C1       0.91500    0.91500    1.02020   1.00
C1       0.91500    1.02020    0.91500   1.00
C1       0.80980    0.91500    0.91500   1.00
C1       1.02020    0.91500    0.91500   1.00
C1       0.91500    0.80980    0.91500   1.00
C1       0.91500    0.91500    0.80980   1.00
O1       0.41500    0.41500    0.91500   1.00
Zn1      0.38220    0.44780    0.94780   1.00
Zn1      0.44780    0.38220    0.94780   1.00
Zn1      0.44780    0.44780    0.88220   1.00
Zn1      0.38220    0.38220    0.88220   1.00
O2       0.39150    0.43850    1.00320   1.00
O2       0.39150    0.50320    0.93850   1.00
O2       0.32680    0.43850    0.93850   1.00
O2       0.43850    0.39150    1.00320   1.00
O2       0.50320    0.39150    0.93850   1.00
O2       0.43850    0.32680    0.93850   1.00
O2       0.43850    0.50320    0.89150   1.00
O2       0.50320    0.43850    0.89150   1.00
O2       0.43850    0.43850    0.82680   1.00
O2       0.32680    0.39150    0.89150   1.00
O2       0.39150    0.32680    0.89150   1.00
O2       0.39150    0.39150    0.82680   1.00
C1       0.41500    0.41500    1.02020   1.00
C1       0.41500    0.52020    0.91500   1.00
C1       0.30980    0.41500    0.91500   1.00
C1       0.52020    0.41500    0.91500   1.00
C1       0.41500    0.30980    0.91500   1.00
C1       0.41500    0.41500    0.80980   1.00
O1       0.41500    0.91500    0.41500   1.00
Zn1      0.38220    0.94780    0.44780   1.00
Zn1      0.44780    0.88220    0.44780   1.00
Zn1      0.44780    0.94780    0.38220   1.00
Zn1      0.38220    0.88220    0.38220   1.00
O2       0.39150    0.93850    0.50320   1.00
O2       0.39150    1.00320    0.43850   1.00
O2       0.32680    0.93850    0.43850   1.00
O2       0.43850    0.89150    0.50320   1.00
O2       0.50320    0.89150    0.43850   1.00
O2       0.43850    0.82680    0.43850   1.00
O2       0.43850    1.00320    0.39150   1.00
O2       0.50320    0.93850    0.39150   1.00
O2       0.43850    0.93850    0.32680   1.00
O2       0.32680    0.89150    0.39150   1.00
O2       0.39150    0.82680    0.39150   1.00
O2       0.39150    0.89150    0.32680   1.00
C1       0.41500    0.91500    0.52020   1.00
C1       0.41500    1.02020    0.41500   1.00
C1       0.30980    0.91500    0.41500   1.00
C1       0.52020    0.91500    0.41500   1.00
C1       0.41500    0.80980    0.41500   1.00
C1       0.41500    0.91500    0.30980   1.00
O1       0.91500    0.41500    0.41500   1.00
Zn1      0.88220    0.44780    0.44780   1.00
Zn1      0.94780    0.38220    0.44780   1.00
Zn1      0.94780    0.44780    0.38220   1.00
Zn1      0.88220    0.38220    0.38220   1.00
O2       0.89150    0.43850    0.50320   1.00
O2       0.89150    0.50320    0.43850   1.00
O2       0.82680    0.43850    0.43850   1.00
O2       0.93850    0.39150    0.50320   1.00
O2       1.00320    0.39150    0.43850   1.00
O2       0.93850    0.32680    0.43850   1.00
O2       0.93850    0.50320    0.39150   1.00
O2       1.00320    0.43850    0.39150   1.00
O2       0.93850    0.43850    0.32680   1.00
O2       0.82680    0.39150    0.39150   1.00
O2       0.89150    0.32680    0.39150   1.00
O2       0.89150    0.39150    0.32680   1.00
C1       0.91500    0.41500    0.52020   1.00
C1       0.91500    0.52020    0.41500   1.00
C1       0.80980    0.41500    0.41500   1.00
C1       1.02020    0.41500    0.41500   1.00
C1       0.91500    0.30980    0.41500   1.00
C1       0.91500    0.41500    0.30980   1.00
O1       0.41500    0.41500    0.41500   1.00
Zn1      0.44780    0.38220    0.38220   1.00
Zn1      0.38220    0.44780    0.38220   1.00
Zn1      0.38220    0.38220    0.44780   1.00
Zn1      0.44780    0.44780    0.44780   1.00
O2       0.43850    0.39150    0.32680   1.00
O2       0.43850    0.32680    0.39150   1.00
O2       0.50320    0.39150    0.39150   1.00
O2       0.39150    0.43850    0.32680   1.00
O2       0.32680    0.43850    0.39150   1.00
O2       0.39150    0.50320    0.39150   1.00
O2       0.39150    0.32680    0.43850   1.00
O2       0.32680    0.39150    0.43850   1.00
O2       0.39150    0.39150    0.50320   1.00
O2       0.50320    0.43850    0.43850   1.00
O2       0.43850    0.50320    0.43850   1.00
O2       0.43850    0.43850    0.50320   1.00
C1       0.41500    0.41500    0.30980   1.00
C1       0.41500    0.30980    0.41500   1.00
C1       0.52020    0.41500    0.41500   1.00
C1       0.30980    0.41500    0.41500   1.00
C1       0.41500    0.52020    0.41500   1.00
C1       0.41500    0.41500    0.52020   1.00
O1       0.91500    0.91500    0.41500   1.00
Zn1      0.94780    0.88220    0.38220   1.00
Zn1      0.88220    0.94780    0.38220   1.00
Zn1      0.88220    0.88220    0.44780   1.00
Zn1      0.94780    0.94780    0.44780   1.00
O2       0.93850    0.89150    0.32680   1.00
O2       0.93850    0.82680    0.39150   1.00
O2       1.00320    0.89150    0.39150   1.00
O2       0.89150    0.93850    0.32680   1.00
O2       0.82680    0.93850    0.39150   1.00
O2       0.89150    1.00320    0.39150   1.00
O2       0.89150    0.82680    0.43850   1.00
O2       0.82680    0.89150    0.43850   1.00
O2       0.89150    0.89150    0.50320   1.00
O2       1.00320    0.93850    0.43850   1.00
O2       0.93850    1.00320    0.43850   1.00
O2       0.93850    0.93850    0.50320   1.00
C1       0.91500    0.91500    0.30980   1.00
C1       0.91500    0.80980    0.41500   1.00
C1       1.02020    0.91500    0.41500   1.00
C1       0.80980    0.91500    0.41500   1.00
C1       0.91500    1.02020    0.41500   1.00
C1       0.91500    0.91500    0.52020   1.00
O1       0.91500    0.41500    0.91500   1.00
Zn1      0.94780    0.38220    0.88220   1.00
Zn1      0.88220    0.44780    0.88220   1.00
Zn1      0.88220    0.38220    0.94780   1.00
Zn1      0.94780    0.44780    0.94780   1.00
O2       0.93850    0.39150    0.82680   1.00
O2       0.93850    0.32680    0.89150   1.00
O2       1.00320    0.39150    0.89150   1.00
O2       0.89150    0.43850    0.82680   1.00
O2       0.82680    0.43850    0.89150   1.00
O2       0.89150    0.50320    0.89150   1.00
O2       0.89150    0.32680    0.93850   1.00
O2       0.82680    0.39150    0.93850   1.00
O2       0.89150    0.39150    1.00320   1.00
O2       1.00320    0.43850    0.93850   1.00
O2       0.93850    0.50320    0.93850   1.00
O2       0.93850    0.43850    1.00320   1.00
C1       0.91500    0.41500    0.80980   1.00
C1       0.91500    0.30980    0.91500   1.00
C1       1.02020    0.41500    0.91500   1.00
C1       0.80980    0.41500    0.91500   1.00
C1       0.91500    0.52020    0.91500   1.00
C1       0.91500    0.41500    1.02020   1.00
O1       0.41500    0.91500    0.91500   1.00
Zn1      0.44780    0.88220    0.88220   1.00
Zn1      0.38220    0.94780    0.88220   1.00
Zn1      0.38220    0.88220    0.94780   1.00
Zn1      0.44780    0.94780    0.94780   1.00
O2       0.43850    0.89150    0.82680   1.00
O2       0.43850    0.82680    0.89150   1.00
O2       0.50320    0.89150    0.89150   1.00
O2       0.39150    0.93850    0.82680   1.00
O2       0.32680    0.93850    0.89150   1.00
O2       0.39150    1.00320    0.89150   1.00
O2       0.39150    0.82680    0.93850   1.00
O2       0.32680    0.89150    0.93850   1.00
O2       0.39150    0.89150    1.00320   1.00
O2       0.50320    0.93850    0.93850   1.00
O2       0.43850    1.00320    0.93850   1.00
O2       0.43850    0.93850    1.00320   1.00
C1       0.41500    0.91500    0.80980   1.00
C1       0.41500    0.80980    0.91500   1.00
C1       0.52020    0.91500    0.91500   1.00
C1       0.30980    0.91500    0.91500   1.00
C1       0.41500    1.02020    0.91500   1.00
C1       0.41500    0.91500    1.02020   1.00
C4       0.74993    0.74993    0.97915   1.00
C4       0.75007    0.75007    1.02085   1.00
C3       0.75059    0.71515    0.95708   1.00
C3       0.71552    0.75679    1.04225   1.00
C3       0.74908    0.78540    0.95816   1.00
C3a      0.78489    0.74292    1.04263   1.00
C2       0.75029    0.75148    0.89483   1.00
C2       0.74941    0.74865    1.10517   1.00
C3       0.75078    0.71598    0.91566   1.00
C3       0.71526    0.75606    1.08359   1.00
C3       0.74943    0.78614    0.91680   1.00
C3       0.78398    0.74220    1.08415   1.00
H1       0.75098    0.68727    0.97192   1.00
H1       0.68848    0.76235    1.02685   1.00
H1       0.75137    0.68875    0.89968   1.00
H1       0.68814    0.76125    1.09895   1.00
H1       0.74931    0.81394    0.90179   1.00
H1       0.81053    0.73689    1.10043   1.00
C5       0.82368    0.73676    1.02239   1.00
H1       0.74919    0.81273    0.97401   1.00
H2       0.84656    0.72776    1.04354   1.00
H2       0.82089    0.71253    1.00103   1.00
N1       0.83641    0.77258    1.00292   1.00
C6       0.84303    0.80728    1.02012   1.00
C6       0.84402    0.77673    0.96460   1.00
C6       0.85465    0.83405    0.99243   1.00
C6       0.85526    0.81462    0.95711   1.00
H3       0.83940    0.81298    1.05099   1.00
H3       0.84112    0.75376    0.94309   1.00
H3       0.86190    0.86435    0.99741   1.00
H3       0.86300    0.82673    0.92903   1.00
C4       0.74993    0.97915    0.74993   1.00
C4       0.75007    1.02085    0.75007   1.00
C3       0.71515    0.95708    0.75059   1.00
C3       0.75679    1.04225    0.71552   1.00
C3       0.78540    0.95816    0.74908   1.00
C3a      0.74292    1.04263    0.78489   1.00
C2       0.75148    0.89483    0.75029   1.00
C2       0.74865    1.10517    0.74941   1.00
C3       0.71598    0.91566    0.75078   1.00
C3       0.75606    1.08359    0.71526   1.00
C3       0.78614    0.91680    0.74943   1.00
C3       0.74220    1.08415    0.78398   1.00
H1       0.68727    0.97192    0.75098   1.00
H1       0.76235    1.02685    0.68848   1.00
H1       0.68875    0.89968    0.75137   1.00
H1       0.76125    1.09895    0.68814   1.00
H1       0.81394    0.90179    0.74931   1.00
H1       0.73689    1.10043    0.81053   1.00
C5       0.73676    1.02239    0.82368   1.00
H1       0.81273    0.97401    0.74919   1.00
H2       0.72776    1.04354    0.84656   1.00
H2       0.71253    1.00103    0.82089   1.00
N1       0.77258    1.00292    0.83641   1.00
C6       0.80728    1.02012    0.84303   1.00
C6       0.77673    0.96460    0.84402   1.00
C6       0.83405    0.99243    0.85465   1.00
C6       0.81462    0.95711    0.85526   1.00
H3       0.81298    1.05099    0.83940   1.00
H3       0.75376    0.94309    0.84112   1.00
H3       0.86435    0.99741    0.86190   1.00
H3       0.82673    0.92903    0.86300   1.00
C4       0.52085    0.74993    0.75007   1.00
C4       0.47915    0.75007    0.74993   1.00
C3       0.54292    0.75059    0.78485   1.00
C3       0.45775    0.71552    0.74321   1.00
C3       0.54184    0.74908    0.71460   1.00
C3a      0.45737    0.78489    0.75708   1.00
C2       0.60517    0.75029    0.74852   1.00
C2       0.39483    0.74941    0.75135   1.00
C3       0.58434    0.75078    0.78402   1.00
C3       0.41641    0.71526    0.74394   1.00
C3       0.58320    0.74943    0.71386   1.00
C3       0.41585    0.78398    0.75780   1.00
H1       0.52808    0.75098    0.81273   1.00
H1       0.47315    0.68848    0.73765   1.00
H1       0.60032    0.75137    0.81125   1.00
H1       0.40105    0.68814    0.73875   1.00
H1       0.59821    0.74931    0.68606   1.00
H1       0.39957    0.81053    0.76311   1.00
C5       0.47761    0.82368    0.76324   1.00
H1       0.52599    0.74919    0.68727   1.00
H2       0.45646    0.84656    0.77224   1.00
H2       0.49897    0.82089    0.78747   1.00
N1       0.49708    0.83641    0.72742   1.00
C6       0.47988    0.84303    0.69272   1.00
C6       0.53540    0.84402    0.72327   1.00
C6       0.50757    0.85465    0.66595   1.00
C6       0.54289    0.85526    0.68538   1.00
H3       0.44901    0.83940    0.68702   1.00
H3       0.55691    0.84112    0.74624   1.00
H3       0.50259    0.86190    0.63565   1.00
H3       0.57097    0.86300    0.67327   1.00
C4       0.97915    0.74993    0.74993   1.00
C4       1.02085    0.75007    0.75007   1.00
C3       0.95708    0.75059    0.71515   1.00
C3       1.04225    0.71552    0.75679   1.00
C3       0.95816    0.74908    0.78540   1.00
C3a      1.04263    0.78489    0.74292   1.00
C2       0.89483    0.75029    0.75148   1.00
C2       1.10517    0.74941    0.74865   1.00
C3       0.91566    0.75078    0.71598   1.00
C3       1.08359    0.71526    0.75606   1.00
C3       0.91680    0.74943    0.78614   1.00
C3       1.08415    0.78398    0.74220   1.00
H1       0.97192    0.75098    0.68727   1.00
H1       1.02685    0.68848    0.76235   1.00
H1       0.89968    0.75137    0.68875   1.00
H1       1.09895    0.68814    0.76125   1.00
H1       0.90179    0.74931    0.81394   1.00
H1       1.10043    0.81053    0.73689   1.00
C5       1.02239    0.82368    0.73676   1.00
H1       0.97401    0.74919    0.81273   1.00
H2       1.04354    0.84656    0.72776   1.00
H2       1.00103    0.82089    0.71253   1.00
N1       1.00292    0.83641    0.77258   1.00
C6       1.02012    0.84303    0.80728   1.00
C6       0.96460    0.84402    0.77673   1.00
C6       0.99243    0.85465    0.83405   1.00
C6       0.95711    0.85526    0.81462   1.00
H3       1.05099    0.83940    0.81298   1.00
H3       0.94309    0.84112    0.75376   1.00
H3       0.99741    0.86190    0.86435   1.00
H3       0.92903    0.86300    0.82673   1.00
C4       0.75007    0.52085    0.74993   1.00
C4       0.74993    0.47915    0.75007   1.00
C3       0.78485    0.54292    0.75059   1.00
C3       0.74321    0.45775    0.71552   1.00
C3       0.71460    0.54184    0.74908   1.00
C3a      0.75708    0.45737    0.78489   1.00
C2       0.74852    0.60517    0.75029   1.00
C2       0.75135    0.39483    0.74941   1.00
C3       0.78402    0.58434    0.75078   1.00
C3       0.74394    0.41641    0.71526   1.00
C3       0.71386    0.58320    0.74943   1.00
C3       0.75780    0.41585    0.78398   1.00
H1       0.81273    0.52808    0.75098   1.00
H1       0.73765    0.47315    0.68848   1.00
H1       0.81125    0.60032    0.75137   1.00
H1       0.73875    0.40105    0.68814   1.00
H1       0.68606    0.59821    0.74931   1.00
H1       0.76311    0.39957    0.81053   1.00
C5       0.76324    0.47761    0.82368   1.00
H1       0.68727    0.52599    0.74919   1.00
H2       0.77224    0.45646    0.84656   1.00
H2       0.78747    0.49897    0.82089   1.00
N1       0.72742    0.49708    0.83641   1.00
C6       0.69272    0.47988    0.84303   1.00
C6       0.72327    0.53540    0.84402   1.00
C6       0.66595    0.50757    0.85465   1.00
C6       0.68538    0.54289    0.85526   1.00
H3       0.68702    0.44901    0.83940   1.00
H3       0.74624    0.55691    0.84112   1.00
H3       0.63565    0.50259    0.86190   1.00
H3       0.67327    0.57097    0.86300   1.00
C4       0.74993    0.75007    0.52085   1.00
C4       0.75007    0.74993    0.47915   1.00
C3       0.75059    0.78485    0.54292   1.00
C3       0.71552    0.74321    0.45775   1.00
C3       0.74908    0.71460    0.54184   1.00
C3a      0.78489    0.75708    0.45737   1.00
C2       0.75029    0.74852    0.60517   1.00
C2       0.74941    0.75135    0.39483   1.00
C3       0.75078    0.78402    0.58434   1.00
C3       0.71526    0.74394    0.41641   1.00
C3       0.74943    0.71386    0.58320   1.00
C3       0.78398    0.75780    0.41585   1.00
H1       0.75098    0.81273    0.52808   1.00
H1       0.68848    0.73765    0.47315   1.00
H1       0.75137    0.81125    0.60032   1.00
H1       0.68814    0.73875    0.40105   1.00
H1       0.74931    0.68606    0.59821   1.00
H1       0.81053    0.76311    0.39957   1.00
C5       0.82368    0.76324    0.47761   1.00
H1       0.74919    0.68727    0.52599   1.00
H2       0.84656    0.77224    0.45646   1.00
H2       0.82089    0.78747    0.49897   1.00
N1       0.83641    0.72742    0.49708   1.00
C6       0.84303    0.69272    0.47988   1.00
C6       0.84402    0.72327    0.53540   1.00
C6       0.85465    0.66595    0.50757   1.00
C6       0.85526    0.68538    0.54289   1.00
H3       0.83940    0.68702    0.44901   1.00
H3       0.84112    0.74624    0.55691   1.00
H3       0.86190    0.63565    0.50259   1.00
H3       0.86300    0.67327    0.57097   1.00
C4       0.24993    0.24993    0.97915   1.00
C4       0.25007    0.25007    1.02085   1.00
C3       0.25059    0.21515    0.95708   1.00
C3       0.21552    0.25679    1.04225   1.00
C3       0.24908    0.28540    0.95816   1.00
C3a      0.28489    0.24292    1.04263   1.00
C2       0.25029    0.25148    0.89483   1.00
C2       0.24941    0.24865    1.10517   1.00
C3       0.25078    0.21598    0.91566   1.00
C3       0.21526    0.25606    1.08359   1.00
C3       0.24943    0.28614    0.91680   1.00
C3       0.28398    0.24220    1.08415   1.00
H1       0.25098    0.18727    0.97192   1.00
H1       0.18848    0.26235    1.02685   1.00
H1       0.25137    0.18875    0.89968   1.00
H1       0.18814    0.26125    1.09895   1.00
H1       0.24931    0.31394    0.90179   1.00
H1       0.31053    0.23689    1.10043   1.00
C5       0.32368    0.23676    1.02239   1.00
H1       0.24919    0.31273    0.97401   1.00
H2       0.34656    0.22776    1.04354   1.00
H2       0.32089    0.21253    1.00103   1.00
N1       0.33641    0.27258    1.00292   1.00
C6       0.34303    0.30728    1.02012   1.00
C6       0.34402    0.27673    0.96460   1.00
C6       0.35465    0.33405    0.99243   1.00
C6       0.35526    0.31462    0.95711   1.00
H3       0.33940    0.31298    1.05099   1.00
H3       0.34112    0.25376    0.94309   1.00
H3       0.36190    0.36435    0.99741   1.00
H3       0.36300    0.32673    0.92903   1.00
C4       0.24993    0.47915    0.74993   1.00
C4       0.25007    0.52085    0.75007   1.00
C3       0.21515    0.45708    0.75059   1.00
C3       0.25679    0.54225    0.71552   1.00
C3       0.28540    0.45816    0.74908   1.00
C3a      0.24292    0.54263    0.78489   1.00
C2       0.25148    0.39483    0.75029   1.00
C2       0.24865    0.60517    0.74941   1.00
C3       0.21598    0.41566    0.75078   1.00
C3       0.25606    0.58359    0.71526   1.00
C3       0.28614    0.41680    0.74943   1.00
C3       0.24220    0.58415    0.78398   1.00
H1       0.18727    0.47192    0.75098   1.00
H1       0.26235    0.52685    0.68848   1.00
H1       0.18875    0.39968    0.75137   1.00
H1       0.26125    0.59895    0.68814   1.00
H1       0.31394    0.40179    0.74931   1.00
H1       0.23689    0.60043    0.81053   1.00
C5       0.23676    0.52239    0.82368   1.00
H1       0.31273    0.47401    0.74919   1.00
H2       0.22776    0.54354    0.84656   1.00
H2       0.21253    0.50103    0.82089   1.00
N1       0.27258    0.50292    0.83641   1.00
C6       0.30728    0.52012    0.84303   1.00
C6       0.27673    0.46460    0.84402   1.00
C6       0.33405    0.49243    0.85465   1.00
C6       0.31462    0.45711    0.85526   1.00
H3       0.31298    0.55099    0.83940   1.00
H3       0.25376    0.44309    0.84112   1.00
H3       0.36435    0.49741    0.86190   1.00
H3       0.32673    0.42903    0.86300   1.00
C4       0.02085    0.24993    0.75007   1.00
C4       -0.02085   0.25007    0.74993   1.00
C3       0.04292    0.25059    0.78485   1.00
C3       -0.04225   0.21552    0.74321   1.00
C3       0.04184    0.24908    0.71460   1.00
C3a      -0.04263   0.28489    0.75708   1.00
C2       0.10517    0.25029    0.74852   1.00
C2       -0.10517   0.24941    0.75135   1.00
C3       0.08434    0.25078    0.78402   1.00
C3       -0.08359   0.21526    0.74394   1.00
C3       0.08320    0.24943    0.71386   1.00
C3       -0.08415   0.28398    0.75780   1.00
H1       0.02808    0.25098    0.81273   1.00
H1       -0.02685   0.18848    0.73765   1.00
H1       0.10032    0.25137    0.81125   1.00
H1       -0.09895   0.18814    0.73875   1.00
H1       0.09821    0.24931    0.68606   1.00
H1       -0.10043   0.31053    0.76311   1.00
C5       -0.02239   0.32368    0.76324   1.00
H1       0.02599    0.24919    0.68727   1.00
H2       -0.04354   0.34656    0.77224   1.00
H2       -0.00103   0.32089    0.78747   1.00
N1       -0.00292   0.33641    0.72742   1.00
C6       -0.02012   0.34303    0.69272   1.00
C6       0.03540    0.34402    0.72327   1.00
C6       0.00757    0.35465    0.66595   1.00
C6       0.04289    0.35526    0.68538   1.00
H3       -0.05099   0.33940    0.68702   1.00
H3       0.05691    0.34112    0.74624   1.00
H3       0.00259    0.36190    0.63565   1.00
H3       0.07097    0.36300    0.67327   1.00
C4       0.47915    0.24993    0.74993   1.00
C4       0.52085    0.25007    0.75007   1.00
C3       0.45708    0.25059    0.71515   1.00
C3       0.54225    0.21552    0.75679   1.00
C3       0.45816    0.24908    0.78540   1.00
C3a      0.54263    0.28489    0.74292   1.00
C2       0.39483    0.25029    0.75148   1.00
C2       0.60517    0.24941    0.74865   1.00
C3       0.41566    0.25078    0.71598   1.00
C3       0.58359    0.21526    0.75606   1.00
C3       0.41680    0.24943    0.78614   1.00
C3       0.58415    0.28398    0.74220   1.00
H1       0.47192    0.25098    0.68727   1.00
H1       0.52685    0.18848    0.76235   1.00
H1       0.39968    0.25137    0.68875   1.00
H1       0.59895    0.18814    0.76125   1.00
H1       0.40179    0.24931    0.81394   1.00
H1       0.60043    0.31053    0.73689   1.00
C5       0.52239    0.32368    0.73676   1.00
H1       0.47401    0.24919    0.81273   1.00
H2       0.54354    0.34656    0.72776   1.00
H2       0.50103    0.32089    0.71253   1.00
N1       0.50292    0.33641    0.77258   1.00
C6       0.52012    0.34303    0.80728   1.00
C6       0.46460    0.34402    0.77673   1.00
C6       0.49243    0.35465    0.83405   1.00
C6       0.45711    0.35526    0.81462   1.00
H3       0.55099    0.33940    0.81298   1.00
H3       0.44309    0.34112    0.75376   1.00
H3       0.49741    0.36190    0.86435   1.00
H3       0.42903    0.36300    0.82673   1.00
C4       0.25007    0.02085    0.74993   1.00
C4       0.24993    -0.02085   0.75007   1.00
C3       0.28485    0.04292    0.75059   1.00
C3       0.24321    -0.04225   0.71552   1.00
C3       0.21460    0.04184    0.74908   1.00
C3a      0.25708    -0.04263   0.78489   1.00
C2       0.24852    0.10517    0.75029   1.00
C2       0.25135    -0.10517   0.74941   1.00
C3       0.28402    0.08434    0.75078   1.00
C3       0.24394    -0.08359   0.71526   1.00
C3       0.21386    0.08320    0.74943   1.00
C3       0.25780    -0.08415   0.78398   1.00
H1       0.31273    0.02808    0.75098   1.00
H1       0.23765    -0.02685   0.68848   1.00
H1       0.31125    0.10032    0.75137   1.00
H1       0.23875    -0.09895   0.68814   1.00
H1       0.18606    0.09821    0.74931   1.00
H1       0.26311    -0.10043   0.81053   1.00
C5       0.26324    -0.02239   0.82368   1.00
H1       0.18727    0.02599    0.74919   1.00
H2       0.27224    -0.04354   0.84656   1.00
H2       0.28747    -0.00103   0.82089   1.00
N1       0.22742    -0.00292   0.83641   1.00
C6       0.19272    -0.02012   0.84303   1.00
C6       0.22327    0.03540    0.84402   1.00
C6       0.16595    0.00757    0.85465   1.00
C6       0.18538    0.04289    0.85526   1.00
H3       0.18702    -0.05099   0.83940   1.00
H3       0.24624    0.05691    0.84112   1.00
H3       0.13565    0.00259    0.86190   1.00
H3       0.17327    0.07097    0.86300   1.00
C4       0.24993    0.25007    0.52085   1.00
C4       0.25007    0.24993    0.47915   1.00
C3       0.25059    0.28485    0.54292   1.00
C3       0.21552    0.24321    0.45775   1.00
C3       0.24908    0.21460    0.54184   1.00
C3a      0.28489    0.25708    0.45737   1.00
C2       0.25029    0.24852    0.60517   1.00
C2       0.24941    0.25135    0.39483   1.00
C3       0.25078    0.28402    0.58434   1.00
C3       0.21526    0.24394    0.41641   1.00
C3       0.24943    0.21386    0.58320   1.00
C3       0.28398    0.25780    0.41585   1.00
H1       0.25098    0.31273    0.52808   1.00
H1       0.18848    0.23765    0.47315   1.00
H1       0.25137    0.31125    0.60032   1.00
H1       0.18814    0.23875    0.40105   1.00
H1       0.24931    0.18606    0.59821   1.00
H1       0.31053    0.26311    0.39957   1.00
C5       0.32368    0.26324    0.47761   1.00
H1       0.24919    0.18727    0.52599   1.00
H2       0.34656    0.27224    0.45646   1.00
H2       0.32089    0.28747    0.49897   1.00
N1       0.33641    0.22742    0.49708   1.00
C6       0.34303    0.19272    0.47988   1.00
C6       0.34402    0.22327    0.53540   1.00
C6       0.35465    0.16595    0.50757   1.00
C6       0.35526    0.18538    0.54289   1.00
H3       0.33940    0.18702    0.44901   1.00
H3       0.34112    0.24624    0.55691   1.00
H3       0.36190    0.13565    0.50259   1.00
H3       0.36300    0.17327    0.57097   1.00
C4       0.24993    0.74993    0.47915   1.00
C4       0.25007    0.75007    0.52085   1.00
C3       0.25059    0.71515    0.45708   1.00
C3       0.21552    0.75679    0.54225   1.00
C3       0.24908    0.78540    0.45816   1.00
C3a      0.28489    0.74292    0.54263   1.00
C2       0.25029    0.75148    0.39483   1.00
C2       0.24941    0.74865    0.60517   1.00
C3       0.25078    0.71598    0.41566   1.00
C3       0.21526    0.75606    0.58359   1.00
C3       0.24943    0.78614    0.41680   1.00
C3       0.28398    0.74220    0.58415   1.00
H1       0.25098    0.68727    0.47192   1.00
H1       0.18848    0.76235    0.52685   1.00
H1       0.25137    0.68875    0.39968   1.00
H1       0.18814    0.76125    0.59895   1.00
H1       0.24931    0.81394    0.40179   1.00
H1       0.31053    0.73689    0.60043   1.00
C5       0.32368    0.73676    0.52239   1.00
H1       0.24919    0.81273    0.47401   1.00
H2       0.34656    0.72776    0.54354   1.00
H2       0.32089    0.71253    0.50103   1.00
N1       0.33641    0.77258    0.50292   1.00
C6       0.34303    0.80728    0.52012   1.00
C6       0.34402    0.77673    0.46460   1.00
C6       0.35465    0.83405    0.49243   1.00
C6       0.35526    0.81462    0.45711   1.00
H3       0.33940    0.81298    0.55099   1.00
H3       0.34112    0.75376    0.44309   1.00
H3       0.36190    0.86435    0.49741   1.00
H3       0.36300    0.82673    0.42903   1.00
C4       0.24993    0.97915    0.24993   1.00
C4       0.25007    1.02085    0.25007   1.00
C3       0.21515    0.95708    0.25059   1.00
C3       0.25679    1.04225    0.21552   1.00
C3       0.28540    0.95816    0.24908   1.00
C3a      0.24292    1.04263    0.28489   1.00
C2       0.25148    0.89483    0.25029   1.00
C2       0.24865    1.10517    0.24941   1.00
C3       0.21598    0.91566    0.25078   1.00
C3       0.25606    1.08359    0.21526   1.00
C3       0.28614    0.91680    0.24943   1.00
C3       0.24220    1.08415    0.28398   1.00
H1       0.18727    0.97192    0.25098   1.00
H1       0.26235    1.02685    0.18848   1.00
H1       0.18875    0.89968    0.25137   1.00
H1       0.26125    1.09895    0.18814   1.00
H1       0.31394    0.90179    0.24931   1.00
H1       0.23689    1.10043    0.31053   1.00
C5       0.23676    1.02239    0.32368   1.00
H1       0.31273    0.97401    0.24919   1.00
H2       0.22776    1.04354    0.34656   1.00
H2       0.21253    1.00103    0.32089   1.00
N1       0.27258    1.00292    0.33641   1.00
C6       0.30728    1.02012    0.34303   1.00
C6       0.27673    0.96460    0.34402   1.00
C6       0.33405    0.99243    0.35465   1.00
C6       0.31462    0.95711    0.35526   1.00
H3       0.31298    1.05099    0.33940   1.00
H3       0.25376    0.94309    0.34112   1.00
H3       0.36435    0.99741    0.36190   1.00
H3       0.32673    0.92903    0.36300   1.00
C4       0.02085    0.74993    0.25007   1.00
C4       -0.02085   0.75007    0.24993   1.00
C3       0.04292    0.75059    0.28485   1.00
C3       -0.04225   0.71552    0.24321   1.00
C3       0.04184    0.74908    0.21460   1.00
C3a      -0.04263   0.78489    0.25708   1.00
C2       0.10517    0.75029    0.24852   1.00
C2       -0.10517   0.74941    0.25135   1.00
C3       0.08434    0.75078    0.28402   1.00
C3       -0.08359   0.71526    0.24394   1.00
C3       0.08320    0.74943    0.21386   1.00
C3       -0.08415   0.78398    0.25780   1.00
H1       0.02808    0.75098    0.31273   1.00
H1       -0.02685   0.68848    0.23765   1.00
H1       0.10032    0.75137    0.31125   1.00
H1       -0.09895   0.68814    0.23875   1.00
H1       0.09821    0.74931    0.18606   1.00
H1       -0.10043   0.81053    0.26311   1.00
C5       -0.02239   0.82368    0.26324   1.00
H1       0.02599    0.74919    0.18727   1.00
H2       -0.04354   0.84656    0.27224   1.00
H2       -0.00103   0.82089    0.28747   1.00
N1       -0.00292   0.83641    0.22742   1.00
C6       -0.02012   0.84303    0.19272   1.00
C6       0.03540    0.84402    0.22327   1.00
C6       0.00757    0.85465    0.16595   1.00
C6       0.04289    0.85526    0.18538   1.00
H3       -0.05099   0.83940    0.18702   1.00
H3       0.05691    0.84112    0.24624   1.00
H3       0.00259    0.86190    0.13565   1.00
H3       0.07097    0.86300    0.17327   1.00
C4       0.47915    0.74993    0.24993   1.00
C4       0.52085    0.75007    0.25007   1.00
C3       0.45708    0.75059    0.21515   1.00
C3       0.54225    0.71552    0.25679   1.00
C3       0.45816    0.74908    0.28540   1.00
C3a      0.54263    0.78489    0.24292   1.00
C2       0.39483    0.75029    0.25148   1.00
C2       0.60517    0.74941    0.24865   1.00
C3       0.41566    0.75078    0.21598   1.00
C3       0.58359    0.71526    0.25606   1.00
C3       0.41680    0.74943    0.28614   1.00
C3       0.58415    0.78398    0.24220   1.00
H1       0.47192    0.75098    0.18727   1.00
H1       0.52685    0.68848    0.26235   1.00
H1       0.39968    0.75137    0.18875   1.00
H1       0.59895    0.68814    0.26125   1.00
H1       0.40179    0.74931    0.31394   1.00
H1       0.60043    0.81053    0.23689   1.00
C5       0.52239    0.82368    0.23676   1.00
H1       0.47401    0.74919    0.31273   1.00
H2       0.54354    0.84656    0.22776   1.00
H2       0.50103    0.82089    0.21253   1.00
N1       0.50292    0.83641    0.27258   1.00
C6       0.52012    0.84303    0.30728   1.00
C6       0.46460    0.84402    0.27673   1.00
C6       0.49243    0.85465    0.33405   1.00
C6       0.45711    0.85526    0.31462   1.00
H3       0.55099    0.83940    0.31298   1.00
H3       0.44309    0.84112    0.25376   1.00
H3       0.49741    0.86190    0.36435   1.00
H3       0.42903    0.86300    0.32673   1.00
C4       0.25007    0.52085    0.24993   1.00
C4       0.24993    0.47915    0.25007   1.00
C3       0.28485    0.54292    0.25059   1.00
C3       0.24321    0.45775    0.21552   1.00
C3       0.21460    0.54184    0.24908   1.00
C3a      0.25708    0.45737    0.28489   1.00
C2       0.24852    0.60517    0.25029   1.00
C2       0.25135    0.39483    0.24941   1.00
C3       0.28402    0.58434    0.25078   1.00
C3       0.24394    0.41641    0.21526   1.00
C3       0.21386    0.58320    0.24943   1.00
C3       0.25780    0.41585    0.28398   1.00
H1       0.31273    0.52808    0.25098   1.00
H1       0.23765    0.47315    0.18848   1.00
H1       0.31125    0.60032    0.25137   1.00
H1       0.23875    0.40105    0.18814   1.00
H1       0.18606    0.59821    0.24931   1.00
H1       0.26311    0.39957    0.31053   1.00
C5       0.26324    0.47761    0.32368   1.00
H1       0.18727    0.52599    0.24919   1.00
H2       0.27224    0.45646    0.34656   1.00
H2       0.28747    0.49897    0.32089   1.00
N1       0.22742    0.49708    0.33641   1.00
C6       0.19272    0.47988    0.34303   1.00
C6       0.22327    0.53540    0.34402   1.00
C6       0.16595    0.50757    0.35465   1.00
C6       0.18538    0.54289    0.35526   1.00
H3       0.18702    0.44901    0.33940   1.00
H3       0.24624    0.55691    0.34112   1.00
H3       0.13565    0.50259    0.36190   1.00
H3       0.17327    0.57097    0.36300   1.00
C4       0.24993    0.75007    0.02085   1.00
C4       0.25007    0.74993    -0.02085   1.00
C3       0.25059    0.78485    0.04292   1.00
C3       0.21552    0.74321    -0.04225   1.00
C3       0.24908    0.71460    0.04184   1.00
C3a      0.28489    0.75708    -0.04263   1.00
C2       0.25029    0.74852    0.10517   1.00
C2       0.24941    0.75135    -0.10517   1.00
C3       0.25078    0.78402    0.08434   1.00
C3       0.21526    0.74394    -0.08359   1.00
C3       0.24943    0.71386    0.08320   1.00
C3       0.28398    0.75780    -0.08415   1.00
H1       0.25098    0.81273    0.02808   1.00
H1       0.18848    0.73765    -0.02685   1.00
H1       0.25137    0.81125    0.10032   1.00
H1       0.18814    0.73875    -0.09895   1.00
H1       0.24931    0.68606    0.09821   1.00
H1       0.31053    0.76311    -0.10043   1.00
C5       0.32368    0.76324    -0.02239   1.00
H1       0.24919    0.68727    0.02599   1.00
H2       0.34656    0.77224    -0.04354   1.00
H2       0.32089    0.78747    -0.00103   1.00
N1       0.33641    0.72742    -0.00292   1.00
C6       0.34303    0.69272    -0.02012   1.00
C6       0.34402    0.72327    0.03540   1.00
C6       0.35465    0.66595    0.00757   1.00
C6       0.35526    0.68538    0.04289   1.00
H3       0.33940    0.68702    -0.05099   1.00
H3       0.34112    0.74624    0.05691   1.00
H3       0.36190    0.63565    0.00259   1.00
H3       0.36300    0.67327    0.07097   1.00
C4       0.74993    0.24993    0.47915   1.00
C4       0.75007    0.25007    0.52085   1.00
C3       0.75059    0.21515    0.45708   1.00
C3       0.71552    0.25679    0.54225   1.00
C3       0.74908    0.28540    0.45816   1.00
C3a      0.78489    0.24292    0.54263   1.00
C2       0.75029    0.25148    0.39483   1.00
C2       0.74941    0.24865    0.60517   1.00
C3       0.75078    0.21598    0.41566   1.00
C3       0.71526    0.25606    0.58359   1.00
C3       0.74943    0.28614    0.41680   1.00
C3       0.78398    0.24220    0.58415   1.00
H1       0.75098    0.18727    0.47192   1.00
H1       0.68848    0.26235    0.52685   1.00
H1       0.75137    0.18875    0.39968   1.00
H1       0.68814    0.26125    0.59895   1.00
H1       0.74931    0.31394    0.40179   1.00
H1       0.81053    0.23689    0.60043   1.00
C5       0.82368    0.23676    0.52239   1.00
H1       0.74919    0.31273    0.47401   1.00
H2       0.84656    0.22776    0.54354   1.00
H2       0.82089    0.21253    0.50103   1.00
N1       0.83641    0.27258    0.50292   1.00
C6       0.84303    0.30728    0.52012   1.00
C6       0.84402    0.27673    0.46460   1.00
C6       0.85465    0.33405    0.49243   1.00
C6       0.85526    0.31462    0.45711   1.00
H3       0.83940    0.31298    0.55099   1.00
H3       0.84112    0.25376    0.44309   1.00
H3       0.86190    0.36435    0.49741   1.00
H3       0.86300    0.32673    0.42903   1.00
C4       0.74993    0.47915    0.24993   1.00
C4       0.75007    0.52085    0.25007   1.00
C3       0.71515    0.45708    0.25059   1.00
C3       0.75679    0.54225    0.21552   1.00
C3       0.78540    0.45816    0.24908   1.00
C3a      0.74292    0.54263    0.28489   1.00
C2       0.75148    0.39483    0.25029   1.00
C2       0.74865    0.60517    0.24941   1.00
C3       0.71598    0.41566    0.25078   1.00
C3       0.75606    0.58359    0.21526   1.00
C3       0.78614    0.41680    0.24943   1.00
C3       0.74220    0.58415    0.28398   1.00
H1       0.68727    0.47192    0.25098   1.00
H1       0.76235    0.52685    0.18848   1.00
H1       0.68875    0.39968    0.25137   1.00
H1       0.76125    0.59895    0.18814   1.00
H1       0.81394    0.40179    0.24931   1.00
H1       0.73689    0.60043    0.31053   1.00
C5       0.73676    0.52239    0.32368   1.00
H1       0.81273    0.47401    0.24919   1.00
H2       0.72776    0.54354    0.34656   1.00
H2       0.71253    0.50103    0.32089   1.00
N1       0.77258    0.50292    0.33641   1.00
C6       0.80728    0.52012    0.34303   1.00
C6       0.77673    0.46460    0.34402   1.00
C6       0.83405    0.49243    0.35465   1.00
C6       0.81462    0.45711    0.35526   1.00
H3       0.81298    0.55099    0.33940   1.00
H3       0.75376    0.44309    0.34112   1.00
H3       0.86435    0.49741    0.36190   1.00
H3       0.82673    0.42903    0.36300   1.00
C4       0.52085    0.24993    0.25007   1.00
C4       0.47915    0.25007    0.24993   1.00
C3       0.54292    0.25059    0.28485   1.00
C3       0.45775    0.21552    0.24321   1.00
C3       0.54184    0.24908    0.21460   1.00
C3a      0.45737    0.28489    0.25708   1.00
C2       0.60517    0.25029    0.24852   1.00
C2       0.39483    0.24941    0.25135   1.00
C3       0.58434    0.25078    0.28402   1.00
C3       0.41641    0.21526    0.24394   1.00
C3       0.58320    0.24943    0.21386   1.00
C3       0.41585    0.28398    0.25780   1.00
H1       0.52808    0.25098    0.31273   1.00
H1       0.47315    0.18848    0.23765   1.00
H1       0.60032    0.25137    0.31125   1.00
H1       0.40105    0.18814    0.23875   1.00
H1       0.59821    0.24931    0.18606   1.00
H1       0.39957    0.31053    0.26311   1.00
C5       0.47761    0.32368    0.26324   1.00
H1       0.52599    0.24919    0.18727   1.00
H2       0.45646    0.34656    0.27224   1.00
H2       0.49897    0.32089    0.28747   1.00
N1       0.49708    0.33641    0.22742   1.00
C6       0.47988    0.34303    0.19272   1.00
C6       0.53540    0.34402    0.22327   1.00
C6       0.50757    0.35465    0.16595   1.00
C6       0.54289    0.35526    0.18538   1.00
H3       0.44901    0.33940    0.18702   1.00
H3       0.55691    0.34112    0.24624   1.00
H3       0.50259    0.36190    0.13565   1.00
H3       0.57097    0.36300    0.17327   1.00
C4       0.97915    0.24993    0.24993   1.00
C4       1.02085    0.25007    0.25007   1.00
C3       0.95708    0.25059    0.21515   1.00
C3       1.04225    0.21552    0.25679   1.00
C3       0.95816    0.24908    0.28540   1.00
C3a      1.04263    0.28489    0.24292   1.00
C2       0.89483    0.25029    0.25148   1.00
C2       1.10517    0.24941    0.24865   1.00
C3       0.91566    0.25078    0.21598   1.00
C3       1.08359    0.21526    0.25606   1.00
C3       0.91680    0.24943    0.28614   1.00
C3       1.08415    0.28398    0.24220   1.00
H1       0.97192    0.25098    0.18727   1.00
H1       1.02685    0.18848    0.26235   1.00
H1       0.89968    0.25137    0.18875   1.00
H1       1.09895    0.18814    0.26125   1.00
H1       0.90179    0.24931    0.31394   1.00
H1       1.10043    0.31053    0.23689   1.00
C5       1.02239    0.32368    0.23676   1.00
H1       0.97401    0.24919    0.31273   1.00
H2       1.04354    0.34656    0.22776   1.00
H2       1.00103    0.32089    0.21253   1.00
N1       1.00292    0.33641    0.27258   1.00
C6       1.02012    0.34303    0.30728   1.00
C6       0.96460    0.34402    0.27673   1.00
C6       0.99243    0.35465    0.33405   1.00
C6       0.95711    0.35526    0.31462   1.00
H3       1.05099    0.33940    0.31298   1.00
H3       0.94309    0.34112    0.25376   1.00
H3       0.99741    0.36190    0.36435   1.00
H3       0.92903    0.36300    0.32673   1.00
C4       0.75007    0.02085    0.24993   1.00
C4       0.74993    -0.02085   0.25007   1.00
C3       0.78485    0.04292    0.25059   1.00
C3       0.74321    -0.04225   0.21552   1.00
C3       0.71460    0.04184    0.24908   1.00
C3a      0.75708    -0.04263   0.28489   1.00
C2       0.74852    0.10517    0.25029   1.00
C2       0.75135    -0.10517   0.24941   1.00
C3       0.78402    0.08434    0.25078   1.00
C3       0.74394    -0.08359   0.21526   1.00
C3       0.71386    0.08320    0.24943   1.00
C3       0.75780    -0.08415   0.28398   1.00
H1       0.81273    0.02808    0.25098   1.00
H1       0.73765    -0.02685   0.18848   1.00
H1       0.81125    0.10032    0.25137   1.00
H1       0.73875    -0.09895   0.18814   1.00
H1       0.68606    0.09821    0.24931   1.00
H1       0.76311    -0.10043   0.31053   1.00
C5       0.76324    -0.02239   0.32368   1.00
H1       0.68727    0.02599    0.24919   1.00
H2       0.77224    -0.04354   0.34656   1.00
H2       0.78747    -0.00103   0.32089   1.00
N1       0.72742    -0.00292   0.33641   1.00
C6       0.69272    -0.02012   0.34303   1.00
C6       0.72327    0.03540    0.34402   1.00
C6       0.66595    0.00757    0.35465   1.00
C6       0.68538    0.04289    0.35526   1.00
H3       0.68702    -0.05099   0.33940   1.00
H3       0.74624    0.05691    0.34112   1.00
H3       0.63565    0.00259    0.36190   1.00
H3       0.67327    0.07097    0.36300   1.00
C4       0.74993    0.25007    0.02085   1.00
C4       0.75007    0.24993    -0.02085   1.00
C3       0.75059    0.28485    0.04292   1.00
C3       0.71552    0.24321    -0.04225   1.00
C3       0.74908    0.21460    0.04184   1.00
C3a      0.78489    0.25708    -0.04263   1.00
C2       0.75029    0.24852    0.10517   1.00
C2       0.74941    0.25135    -0.10517   1.00
C3       0.75078    0.28402    0.08434   1.00
C3       0.71526    0.24394    -0.08359   1.00
C3       0.74943    0.21386    0.08320   1.00
C3       0.78398    0.25780    -0.08415   1.00
H1       0.75098    0.31273    0.02808   1.00
H1       0.68848    0.23765    -0.02685   1.00
H1       0.75137    0.31125    0.10032   1.00
H1       0.68814    0.23875    -0.09895   1.00
H1       0.74931    0.18606    0.09821   1.00
H1       0.81053    0.26311    -0.10043   1.00
C5       0.82368    0.26324    -0.02239   1.00
H1       0.74919    0.18727    0.02599   1.00
H2       0.84656    0.27224    -0.04354   1.00
H2       0.82089    0.28747    -0.00103   1.00
N1       0.83641    0.22742    -0.00292   1.00
C6       0.84303    0.19272    -0.02012   1.00
C6       0.84402    0.22327    0.03540   1.00
C6       0.85465    0.16595    0.00757   1.00
C6       0.85526    0.18538    0.04289   1.00
H3       0.83940    0.18702    -0.05099   1.00
H3       0.84112    0.24624    0.05691   1.00
H3       0.86190    0.13565    0.00259   1.00
H3       0.86300    0.17327    0.07097   1.00
C4       0.91493    0.91493    1.14415   1.00
C4       0.91507    0.91507    1.18585   1.00
C3       0.91559    0.88015    1.12208   1.00
C3       0.88052    0.92179    1.20725   1.00
C3       0.91408    0.95040    1.12316   1.00
C3a      0.94989    0.90792    1.20763   1.00
C2       0.91529    0.91648    1.05983   1.00
C2       0.91441    0.91365    1.27017   1.00
C3       0.91578    0.88098    1.08066   1.00
C3       0.88026    0.92106    1.24859   1.00
C3       0.91443    0.95114    1.08180   1.00
C3       0.94898    0.90720    1.24915   1.00
H1       0.91598    0.85227    1.13692   1.00
H1       0.85348    0.92735    1.19185   1.00
H1       0.91637    0.85375    1.06468   1.00
H1       0.85314    0.92625    1.26395   1.00
H1       0.91431    0.97894    1.06679   1.00
H1       0.97553    0.90189    1.26543   1.00
C5       0.98868    0.90176    1.18739   1.00
H1       0.91419    0.97773    1.13901   1.00
H2       1.01156    0.89276    1.20854   1.00
H2       0.98589    0.87753    1.16603   1.00
N1       1.00141    0.93758    1.16792   1.00
C6       1.00803    0.97228    1.18512   1.00
C6       1.00902    0.94173    1.12960   1.00
C6       1.01965    0.99905    1.15743   1.00
C6       1.02026    0.97962    1.12211   1.00
H3       1.00440    0.97798    1.21599   1.00
H3       1.00612    0.91876    1.10809   1.00
H3       1.02690    1.02935    1.16241   1.00
H3       1.02800    0.99173    1.09403   1.00
C4       0.91493    1.14415    0.91493   1.00
C4       0.91507    1.18585    0.91507   1.00
C3       0.88015    1.12208    0.91559   1.00
C3       0.92179    1.20725    0.88052   1.00
C3       0.95040    1.12316    0.91408   1.00
C3a      0.90792    1.20763    0.94989   1.00
C2       0.91648    1.05983    0.91529   1.00
C2       0.91365    1.27017    0.91441   1.00
C3       0.88098    1.08066    0.91578   1.00
C3       0.92106    1.24859    0.88026   1.00
C3       0.95114    1.08180    0.91443   1.00
C3       0.90720    1.24915    0.94898   1.00
H1       0.85227    1.13692    0.91598   1.00
H1       0.92735    1.19185    0.85348   1.00
H1       0.85375    1.06468    0.91637   1.00
H1       0.92625    1.26395    0.85314   1.00
H1       0.97894    1.06679    0.91431   1.00
H1       0.90189    1.26543    0.97553   1.00
C5       0.90176    1.18739    0.98868   1.00
H1       0.97773    1.13901    0.91419   1.00
H2       0.89276    1.20854    1.01156   1.00
H2       0.87753    1.16603    0.98589   1.00
N1       0.93758    1.16792    1.00141   1.00
C6       0.97228    1.18512    1.00803   1.00
C6       0.94173    1.12960    1.00902   1.00
C6       0.99905    1.15743    1.01965   1.00
C6       0.97962    1.12211    1.02026   1.00
H3       0.97798    1.21599    1.00440   1.00
H3       0.91876    1.10809    1.00612   1.00
H3       1.02935    1.16241    1.02690   1.00
H3       0.99173    1.09403    1.02800   1.00
C4       0.68585    0.91493    0.91507   1.00
C4       0.64415    0.91507    0.91493   1.00
C3       0.70792    0.91559    0.94985   1.00
C3       0.62275    0.88052    0.90821   1.00
C3       0.70684    0.91408    0.87960   1.00
C3a      0.62237    0.94989    0.92208   1.00
C2       0.77017    0.91529    0.91352   1.00
C2       0.55983    0.91441    0.91635   1.00
C3       0.74934    0.91578    0.94902   1.00
C3       0.58141    0.88026    0.90894   1.00
C3       0.74820    0.91443    0.87886   1.00
C3       0.58085    0.94898    0.92280   1.00
H1       0.69308    0.91598    0.97773   1.00
H1       0.63815    0.85348    0.90265   1.00
H1       0.76532    0.91637    0.97625   1.00
H1       0.56605    0.85314    0.90375   1.00
H1       0.76321    0.91431    0.85106   1.00
H1       0.56457    0.97553    0.92811   1.00
C5       0.64261    0.98868    0.92824   1.00
H1       0.69099    0.91419    0.85227   1.00
H2       0.62146    1.01156    0.93724   1.00
H2       0.66397    0.98589    0.95247   1.00
N1       0.66208    1.00141    0.89242   1.00
C6       0.64488    1.00803    0.85772   1.00
C6       0.70040    1.00902    0.88827   1.00
C6       0.67257    1.01965    0.83095   1.00
C6       0.70789    1.02026    0.85038   1.00
H3       0.61401    1.00440    0.85202   1.00
H3       0.72191    1.00612    0.91124   1.00
H3       0.66759    1.02690    0.80065   1.00
H3       0.73597    1.02800    0.83827   1.00
C4       1.14415    0.91493    0.91493   1.00
C4       1.18585    0.91507    0.91507   1.00
C3       1.12208    0.91559    0.88015   1.00
C3       1.20725    0.88052    0.92179   1.00
C3       1.12316    0.91408    0.95040   1.00
C3a      1.20763    0.94989    0.90792   1.00
C2       1.05983    0.91529    0.91648   1.00
C2       1.27017    0.91441    0.91365   1.00
C3       1.08066    0.91578    0.88098   1.00
C3       1.24859    0.88026    0.92106   1.00
C3       1.08180    0.91443    0.95114   1.00
C3       1.24915    0.94898    0.90720   1.00
H1       1.13692    0.91598    0.85227   1.00
H1       1.19185    0.85348    0.92735   1.00
H1       1.06468    0.91637    0.85375   1.00
H1       1.26395    0.85314    0.92625   1.00
H1       1.06679    0.91431    0.97894   1.00
H1       1.26543    0.97553    0.90189   1.00
C5       1.18739    0.98868    0.90176   1.00
H1       1.13901    0.91419    0.97773   1.00
H2       1.20854    1.01156    0.89276   1.00
H2       1.16603    0.98589    0.87753   1.00
N1       1.16792    1.00141    0.93758   1.00
C6       1.18512    1.00803    0.97228   1.00
C6       1.12960    1.00902    0.94173   1.00
C6       1.15743    1.01965    0.99905   1.00
C6       1.12211    1.02026    0.97962   1.00
H3       1.21599    1.00440    0.97798   1.00
H3       1.10809    1.00612    0.91876   1.00
H3       1.16241    1.02690    1.02935   1.00
H3       1.09403    1.02800    0.99173   1.00
C4       0.91507    0.68585    0.91493   1.00
C4       0.91493    0.64415    0.91507   1.00
C3       0.94985    0.70792    0.91559   1.00
C3       0.90821    0.62275    0.88052   1.00
C3       0.87960    0.70684    0.91408   1.00
C3a      0.92208    0.62237    0.94989   1.00
C2       0.91352    0.77017    0.91529   1.00
C2       0.91635    0.55983    0.91441   1.00
C3       0.94902    0.74934    0.91578   1.00
C3       0.90894    0.58141    0.88026   1.00
C3       0.87886    0.74820    0.91443   1.00
C3       0.92280    0.58085    0.94898   1.00
H1       0.97773    0.69308    0.91598   1.00
H1       0.90265    0.63815    0.85348   1.00
H1       0.97625    0.76532    0.91637   1.00
H1       0.90375    0.56605    0.85314   1.00
H1       0.85106    0.76321    0.91431   1.00
H1       0.92811    0.56457    0.97553   1.00
C5       0.92824    0.64261    0.98868   1.00
H1       0.85227    0.69099    0.91419   1.00
H2       0.93724    0.62146    1.01156   1.00
H2       0.95247    0.66397    0.98589   1.00
N1       0.89242    0.66208    1.00141   1.00
C6       0.85772    0.64488    1.00803   1.00
C6       0.88827    0.70040    1.00902   1.00
C6       0.83095    0.67257    1.01965   1.00
C6       0.85038    0.70789    1.02026   1.00
H3       0.85202    0.61401    1.00440   1.00
H3       0.91124    0.72191    1.00612   1.00
H3       0.80065    0.66759    1.02690   1.00
H3       0.83827    0.73597    1.02800   1.00
C4       0.91493    0.91507    0.68585   1.00
C4       0.91507    0.91493    0.64415   1.00
C3       0.91559    0.94985    0.70792   1.00
C3       0.88052    0.90821    0.62275   1.00
C3       0.91408    0.87960    0.70684   1.00
C3a      0.94989    0.92208    0.62237   1.00
C2       0.91529    0.91352    0.77017   1.00
C2       0.91441    0.91635    0.55983   1.00
C3       0.91578    0.94902    0.74934   1.00
C3       0.88026    0.90894    0.58141   1.00
C3       0.91443    0.87886    0.74820   1.00
C3       0.94898    0.92280    0.58085   1.00
H1       0.91598    0.97773    0.69308   1.00
H1       0.85348    0.90265    0.63815   1.00
H1       0.91637    0.97625    0.76532   1.00
H1       0.85314    0.90375    0.56605   1.00
H1       0.91431    0.85106    0.76321   1.00
H1       0.97553    0.92811    0.56457   1.00
C5       0.98868    0.92824    0.64261   1.00
H1       0.91419    0.85227    0.69099   1.00
H2       1.01156    0.93724    0.62146   1.00
H2       0.98589    0.95247    0.66397   1.00
N1       1.00141    0.89242    0.66208   1.00
C6       1.00803    0.85772    0.64488   1.00
C6       1.00902    0.88827    0.70040   1.00
C6       1.01965    0.83095    0.67257   1.00
C6       1.02026    0.85038    0.70789   1.00
H3       1.00440    0.85202    0.61401   1.00
H3       1.00612    0.91124    0.72191   1.00
H3       1.02690    0.80065    0.66759   1.00
H3       1.02800    0.83827    0.73597   1.00
C4       0.41493    0.41493    1.14415   1.00
C4       0.41507    0.41507    1.18585   1.00
C3       0.41559    0.38015    1.12208   1.00
C3       0.38052    0.42179    1.20725   1.00
C3       0.41408    0.45040    1.12316   1.00
C3a      0.44989    0.40792    1.20763   1.00
C2       0.41529    0.41648    1.05983   1.00
C2       0.41441    0.41365    1.27017   1.00
C3       0.41578    0.38098    1.08066   1.00
C3       0.38026    0.42106    1.24859   1.00
C3       0.41443    0.45114    1.08180   1.00
C3       0.44898    0.40720    1.24915   1.00
H1       0.41598    0.35227    1.13692   1.00
H1       0.35348    0.42735    1.19185   1.00
H1       0.41637    0.35375    1.06468   1.00
H1       0.35314    0.42625    1.26395   1.00
H1       0.41431    0.47894    1.06679   1.00
H1       0.47553    0.40189    1.26543   1.00
C5       0.48868    0.40176    1.18739   1.00
H1       0.41419    0.47773    1.13901   1.00
H2       0.51156    0.39276    1.20854   1.00
H2       0.48589    0.37753    1.16603   1.00
N1       0.50141    0.43758    1.16792   1.00
C6       0.50803    0.47228    1.18512   1.00
C6       0.50902    0.44173    1.12960   1.00
C6       0.51965    0.49905    1.15743   1.00
C6       0.52026    0.47962    1.12211   1.00
H3       0.50440    0.47798    1.21599   1.00
H3       0.50612    0.41876    1.10809   1.00
H3       0.52690    0.52935    1.16241   1.00
H3       0.52800    0.49173    1.09403   1.00
C4       0.41493    0.64415    0.91493   1.00
C4       0.41507    0.68585    0.91507   1.00
C3       0.38015    0.62208    0.91559   1.00
C3       0.42179    0.70725    0.88052   1.00
C3       0.45040    0.62316    0.91408   1.00
C3a      0.40792    0.70763    0.94989   1.00
C2       0.41648    0.55983    0.91529   1.00
C2       0.41365    0.77017    0.91441   1.00
C3       0.38098    0.58066    0.91578   1.00
C3       0.42106    0.74859    0.88026   1.00
C3       0.45114    0.58180    0.91443   1.00
C3       0.40720    0.74915    0.94898   1.00
H1       0.35227    0.63692    0.91598   1.00
H1       0.42735    0.69185    0.85348   1.00
H1       0.35375    0.56468    0.91637   1.00
H1       0.42625    0.76395    0.85314   1.00
H1       0.47894    0.56679    0.91431   1.00
H1       0.40189    0.76543    0.97553   1.00
C5       0.40176    0.68739    0.98868   1.00
H1       0.47773    0.63901    0.91419   1.00
H2       0.39276    0.70854    1.01156   1.00
H2       0.37753    0.66603    0.98589   1.00
N1       0.43758    0.66792    1.00141   1.00
C6       0.47228    0.68512    1.00803   1.00
C6       0.44173    0.62960    1.00902   1.00
C6       0.49905    0.65743    1.01965   1.00
C6       0.47962    0.62211    1.02026   1.00
H3       0.47798    0.71599    1.00440   1.00
H3       0.41876    0.60809    1.00612   1.00
H3       0.52935    0.66241    1.02690   1.00
H3       0.49173    0.59403    1.02800   1.00
C4       0.18585    0.41493    0.91507   1.00
C4       0.14415    0.41507    0.91493   1.00
C3       0.20792    0.41559    0.94985   1.00
C3       0.12275    0.38052    0.90821   1.00
C3       0.20684    0.41408    0.87960   1.00
C3a      0.12237    0.44989    0.92208   1.00
C2       0.27017    0.41529    0.91352   1.00
C2       0.05983    0.41441    0.91635   1.00
C3       0.24934    0.41578    0.94902   1.00
C3       0.08141    0.38026    0.90894   1.00
C3       0.24820    0.41443    0.87886   1.00
C3       0.08085    0.44898    0.92280   1.00
H1       0.19308    0.41598    0.97773   1.00
H1       0.13815    0.35348    0.90265   1.00
H1       0.26532    0.41637    0.97625   1.00
H1       0.06605    0.35314    0.90375   1.00
H1       0.26321    0.41431    0.85106   1.00
H1       0.06457    0.47553    0.92811   1.00
C5       0.14261    0.48868    0.92824   1.00
H1       0.19099    0.41419    0.85227   1.00
H2       0.12146    0.51156    0.93724   1.00
H2       0.16397    0.48589    0.95247   1.00
N1       0.16208    0.50141    0.89242   1.00
C6       0.14488    0.50803    0.85772   1.00
C6       0.20040    0.50902    0.88827   1.00
C6       0.17257    0.51965    0.83095   1.00
C6       0.20789    0.52026    0.85038   1.00
H3       0.11401    0.50440    0.85202   1.00
H3       0.22191    0.50612    0.91124   1.00
H3       0.16759    0.52690    0.80065   1.00
H3       0.23597    0.52800    0.83827   1.00
C4       0.64415    0.41493    0.91493   1.00
C4       0.68585    0.41507    0.91507   1.00
C3       0.62208    0.41559    0.88015   1.00
C3       0.70725    0.38052    0.92179   1.00
C3       0.62316    0.41408    0.95040   1.00
C3a      0.70763    0.44989    0.90792   1.00
C2       0.55983    0.41529    0.91648   1.00
C2       0.77017    0.41441    0.91365   1.00
C3       0.58066    0.41578    0.88098   1.00
C3       0.74859    0.38026    0.92106   1.00
C3       0.58180    0.41443    0.95114   1.00
C3       0.74915    0.44898    0.90720   1.00
H1       0.63692    0.41598    0.85227   1.00
H1       0.69185    0.35348    0.92735   1.00
H1       0.56468    0.41637    0.85375   1.00
H1       0.76395    0.35314    0.92625   1.00
H1       0.56679    0.41431    0.97894   1.00
H1       0.76543    0.47553    0.90189   1.00
C5       0.68739    0.48868    0.90176   1.00
H1       0.63901    0.41419    0.97773   1.00
H2       0.70854    0.51156    0.89276   1.00
H2       0.66603    0.48589    0.87753   1.00
N1       0.66792    0.50141    0.93758   1.00
C6       0.68512    0.50803    0.97228   1.00
C6       0.62960    0.50902    0.94173   1.00
C6       0.65743    0.51965    0.99905   1.00
C6       0.62211    0.52026    0.97962   1.00
H3       0.71599    0.50440    0.97798   1.00
H3       0.60809    0.50612    0.91876   1.00
H3       0.66241    0.52690    1.02935   1.00
H3       0.59403    0.52800    0.99173   1.00
C4       0.41507    0.18585    0.91493   1.00
C4       0.41493    0.14415    0.91507   1.00
C3       0.44985    0.20792    0.91559   1.00
C3       0.40821    0.12275    0.88052   1.00
C3       0.37960    0.20684    0.91408   1.00
C3a      0.42208    0.12237    0.94989   1.00
C2       0.41352    0.27017    0.91529   1.00
C2       0.41635    0.05983    0.91441   1.00
C3       0.44902    0.24934    0.91578   1.00
C3       0.40894    0.08141    0.88026   1.00
C3       0.37886    0.24820    0.91443   1.00
C3       0.42280    0.08085    0.94898   1.00
H1       0.47773    0.19308    0.91598   1.00
H1       0.40265    0.13815    0.85348   1.00
H1       0.47625    0.26532    0.91637   1.00
H1       0.40375    0.06605    0.85314   1.00
H1       0.35106    0.26321    0.91431   1.00
H1       0.42811    0.06457    0.97553   1.00
C5       0.42824    0.14261    0.98868   1.00
H1       0.35227    0.19099    0.91419   1.00
H2       0.43724    0.12146    1.01156   1.00
H2       0.45247    0.16397    0.98589   1.00
N1       0.39242    0.16208    1.00141   1.00
C6       0.35772    0.14488    1.00803   1.00
C6       0.38827    0.20040    1.00902   1.00
C6       0.33095    0.17257    1.01965   1.00
C6       0.35038    0.20789    1.02026   1.00
H3       0.35202    0.11401    1.00440   1.00
H3       0.41124    0.22191    1.00612   1.00
H3       0.30065    0.16759    1.02690   1.00
H3       0.33827    0.23597    1.02800   1.00
C4       0.41493    0.41507    0.68585   1.00
C4       0.41507    0.41493    0.64415   1.00
C3       0.41559    0.44985    0.70792   1.00
C3       0.38052    0.40821    0.62275   1.00
C3       0.41408    0.37960    0.70684   1.00
C3a      0.44989    0.42208    0.62237   1.00
C2       0.41529    0.41352    0.77017   1.00
C2       0.41441    0.41635    0.55983   1.00
C3       0.41578    0.44902    0.74934   1.00
C3       0.38026    0.40894    0.58141   1.00
C3       0.41443    0.37886    0.74820   1.00
C3       0.44898    0.42280    0.58085   1.00
H1       0.41598    0.47773    0.69308   1.00
H1       0.35348    0.40265    0.63815   1.00
H1       0.41637    0.47625    0.76532   1.00
H1       0.35314    0.40375    0.56605   1.00
H1       0.41431    0.35106    0.76321   1.00
H1       0.47553    0.42811    0.56457   1.00
C5       0.48868    0.42824    0.64261   1.00
H1       0.41419    0.35227    0.69099   1.00
H2       0.51156    0.43724    0.62146   1.00
H2       0.48589    0.45247    0.66397   1.00
N1       0.50141    0.39242    0.66208   1.00
C6       0.50803    0.35772    0.64488   1.00
C6       0.50902    0.38827    0.70040   1.00
C6       0.51965    0.33095    0.67257   1.00
C6       0.52026    0.35038    0.70789   1.00
H3       0.50440    0.35202    0.61401   1.00
H3       0.50612    0.41124    0.72191   1.00
H3       0.52690    0.30065    0.66759   1.00
H3       0.52800    0.33827    0.73597   1.00
C4       0.41493    0.91493    0.64415   1.00
C4       0.41507    0.91507    0.68585   1.00
C3       0.41559    0.88015    0.62208   1.00
C3       0.38052    0.92179    0.70725   1.00
C3       0.41408    0.95040    0.62316   1.00
C3a      0.44989    0.90792    0.70763   1.00
C2       0.41529    0.91648    0.55983   1.00
C2       0.41441    0.91365    0.77017   1.00
C3       0.41578    0.88098    0.58066   1.00
C3       0.38026    0.92106    0.74859   1.00
C3       0.41443    0.95114    0.58180   1.00
C3       0.44898    0.90720    0.74915   1.00
H1       0.41598    0.85227    0.63692   1.00
H1       0.35348    0.92735    0.69185   1.00
H1       0.41637    0.85375    0.56468   1.00
H1       0.35314    0.92625    0.76395   1.00
H1       0.41431    0.97894    0.56679   1.00
H1       0.47553    0.90189    0.76543   1.00
C5       0.48868    0.90176    0.68739   1.00
H1       0.41419    0.97773    0.63901   1.00
H2       0.51156    0.89276    0.70854   1.00
H2       0.48589    0.87753    0.66603   1.00
N1       0.50141    0.93758    0.66792   1.00
C6       0.50803    0.97228    0.68512   1.00
C6       0.50902    0.94173    0.62960   1.00
C6       0.51965    0.99905    0.65743   1.00
C6       0.52026    0.97962    0.62211   1.00
H3       0.50440    0.97798    0.71599   1.00
H3       0.50612    0.91876    0.60809   1.00
H3       0.52690    1.02935    0.66241   1.00
H3       0.52800    0.99173    0.59403   1.00
C4       0.41493    1.14415    0.41493   1.00
C4       0.41507    1.18585    0.41507   1.00
C3       0.38015    1.12208    0.41559   1.00
C3       0.42179    1.20725    0.38052   1.00
C3       0.45040    1.12316    0.41408   1.00
C3a      0.40792    1.20763    0.44989   1.00
C2       0.41648    1.05983    0.41529   1.00
C2       0.41365    1.27017    0.41441   1.00
C3       0.38098    1.08066    0.41578   1.00
C3       0.42106    1.24859    0.38026   1.00
C3       0.45114    1.08180    0.41443   1.00
C3       0.40720    1.24915    0.44898   1.00
H1       0.35227    1.13692    0.41598   1.00
H1       0.42735    1.19185    0.35348   1.00
H1       0.35375    1.06468    0.41637   1.00
H1       0.42625    1.26395    0.35314   1.00
H1       0.47894    1.06679    0.41431   1.00
H1       0.40189    1.26543    0.47553   1.00
C5       0.40176    1.18739    0.48868   1.00
H1       0.47773    1.13901    0.41419   1.00
H2       0.39276    1.20854    0.51156   1.00
H2       0.37753    1.16603    0.48589   1.00
N1       0.43758    1.16792    0.50141   1.00
C6       0.47228    1.18512    0.50803   1.00
C6       0.44173    1.12960    0.50902   1.00
C6       0.49905    1.15743    0.51965   1.00
C6       0.47962    1.12211    0.52026   1.00
H3       0.47798    1.21599    0.50440   1.00
H3       0.41876    1.10809    0.50612   1.00
H3       0.52935    1.16241    0.52690   1.00
H3       0.49173    1.09403    0.52800   1.00
C4       0.18585    0.91493    0.41507   1.00
C4       0.14415    0.91507    0.41493   1.00
C3       0.20792    0.91559    0.44985   1.00
C3       0.12275    0.88052    0.40821   1.00
C3       0.20684    0.91408    0.37960   1.00
C3a      0.12237    0.94989    0.42208   1.00
C2       0.27017    0.91529    0.41352   1.00
C2       0.05983    0.91441    0.41635   1.00
C3       0.24934    0.91578    0.44902   1.00
C3       0.08141    0.88026    0.40894   1.00
C3       0.24820    0.91443    0.37886   1.00
C3       0.08085    0.94898    0.42280   1.00
H1       0.19308    0.91598    0.47773   1.00
H1       0.13815    0.85348    0.40265   1.00
H1       0.26532    0.91637    0.47625   1.00
H1       0.06605    0.85314    0.40375   1.00
H1       0.26321    0.91431    0.35106   1.00
H1       0.06457    0.97553    0.42811   1.00
C5       0.14261    0.98868    0.42824   1.00
H1       0.19099    0.91419    0.35227   1.00
H2       0.12146    1.01156    0.43724   1.00
H2       0.16397    0.98589    0.45247   1.00
N1       0.16208    1.00141    0.39242   1.00
C6       0.14488    1.00803    0.35772   1.00
C6       0.20040    1.00902    0.38827   1.00
C6       0.17257    1.01965    0.33095   1.00
C6       0.20789    1.02026    0.35038   1.00
H3       0.11401    1.00440    0.35202   1.00
H3       0.22191    1.00612    0.41124   1.00
H3       0.16759    1.02690    0.30065   1.00
H3       0.23597    1.02800    0.33827   1.00
C4       0.64415    0.91493    0.41493   1.00
C4       0.68585    0.91507    0.41507   1.00
C3       0.62208    0.91559    0.38015   1.00
C3       0.70725    0.88052    0.42179   1.00
C3       0.62316    0.91408    0.45040   1.00
C3a      0.70763    0.94989    0.40792   1.00
C2       0.55983    0.91529    0.41648   1.00
C2       0.77017    0.91441    0.41365   1.00
C3       0.58066    0.91578    0.38098   1.00
C3       0.74859    0.88026    0.42106   1.00
C3       0.58180    0.91443    0.45114   1.00
C3       0.74915    0.94898    0.40720   1.00
H1       0.63692    0.91598    0.35227   1.00
H1       0.69185    0.85348    0.42735   1.00
H1       0.56468    0.91637    0.35375   1.00
H1       0.76395    0.85314    0.42625   1.00
H1       0.56679    0.91431    0.47894   1.00
H1       0.76543    0.97553    0.40189   1.00
C5       0.68739    0.98868    0.40176   1.00
H1       0.63901    0.91419    0.47773   1.00
H2       0.70854    1.01156    0.39276   1.00
H2       0.66603    0.98589    0.37753   1.00
N1       0.66792    1.00141    0.43758   1.00
C6       0.68512    1.00803    0.47228   1.00
C6       0.62960    1.00902    0.44173   1.00
C6       0.65743    1.01965    0.49905   1.00
C6       0.62211    1.02026    0.47962   1.00
H3       0.71599    1.00440    0.47798   1.00
H3       0.60809    1.00612    0.41876   1.00
H3       0.66241    1.02690    0.52935   1.00
H3       0.59403    1.02800    0.49173   1.00
C4       0.41507    0.68585    0.41493   1.00
C4       0.41493    0.64415    0.41507   1.00
C3       0.44985    0.70792    0.41559   1.00
C3       0.40821    0.62275    0.38052   1.00
C3       0.37960    0.70684    0.41408   1.00
C3a      0.42208    0.62237    0.44989   1.00
C2       0.41352    0.77017    0.41529   1.00
C2       0.41635    0.55983    0.41441   1.00
C3       0.44902    0.74934    0.41578   1.00
C3       0.40894    0.58141    0.38026   1.00
C3       0.37886    0.74820    0.41443   1.00
C3       0.42280    0.58085    0.44898   1.00
H1       0.47773    0.69308    0.41598   1.00
H1       0.40265    0.63815    0.35348   1.00
H1       0.47625    0.76532    0.41637   1.00
H1       0.40375    0.56605    0.35314   1.00
H1       0.35106    0.76321    0.41431   1.00
H1       0.42811    0.56457    0.47553   1.00
C5       0.42824    0.64261    0.48868   1.00
H1       0.35227    0.69099    0.41419   1.00
H2       0.43724    0.62146    0.51156   1.00
H2       0.45247    0.66397    0.48589   1.00
N1       0.39242    0.66208    0.50141   1.00
C6       0.35772    0.64488    0.50803   1.00
C6       0.38827    0.70040    0.50902   1.00
C6       0.33095    0.67257    0.51965   1.00
C6       0.35038    0.70789    0.52026   1.00
H3       0.35202    0.61401    0.50440   1.00
H3       0.41124    0.72191    0.50612   1.00
H3       0.30065    0.66759    0.52690   1.00
H3       0.33827    0.73597    0.52800   1.00
C4       0.41493    0.91507    0.18585   1.00
C4       0.41507    0.91493    0.14415   1.00
C3       0.41559    0.94985    0.20792   1.00
C3       0.38052    0.90821    0.12275   1.00
C3       0.41408    0.87960    0.20684   1.00
C3a      0.44989    0.92208    0.12237   1.00
C2       0.41529    0.91352    0.27017   1.00
C2       0.41441    0.91635    0.05983   1.00
C3       0.41578    0.94902    0.24934   1.00
C3       0.38026    0.90894    0.08141   1.00
C3       0.41443    0.87886    0.24820   1.00
C3       0.44898    0.92280    0.08085   1.00
H1       0.41598    0.97773    0.19308   1.00
H1       0.35348    0.90265    0.13815   1.00
H1       0.41637    0.97625    0.26532   1.00
H1       0.35314    0.90375    0.06605   1.00
H1       0.41431    0.85106    0.26321   1.00
H1       0.47553    0.92811    0.06457   1.00
C5       0.48868    0.92824    0.14261   1.00
H1       0.41419    0.85227    0.19099   1.00
H2       0.51156    0.93724    0.12146   1.00
H2       0.48589    0.95247    0.16397   1.00
N1       0.50141    0.89242    0.16208   1.00
C6       0.50803    0.85772    0.14488   1.00
C6       0.50902    0.88827    0.20040   1.00
C6       0.51965    0.83095    0.17257   1.00
C6       0.52026    0.85038    0.20789   1.00
H3       0.50440    0.85202    0.11401   1.00
H3       0.50612    0.91124    0.22191   1.00
H3       0.52690    0.80065    0.16759   1.00
H3       0.52800    0.83827    0.23597   1.00
C4       0.91493    0.41493    0.64415   1.00
C4       0.91507    0.41507    0.68585   1.00
C3       0.91559    0.38015    0.62208   1.00
C3       0.88052    0.42179    0.70725   1.00
C3       0.91408    0.45040    0.62316   1.00
C3a      0.94989    0.40792    0.70763   1.00
C2       0.91529    0.41648    0.55983   1.00
C2       0.91441    0.41365    0.77017   1.00
C3       0.91578    0.38098    0.58066   1.00
C3       0.88026    0.42106    0.74859   1.00
C3       0.91443    0.45114    0.58180   1.00
C3       0.94898    0.40720    0.74915   1.00
H1       0.91598    0.35227    0.63692   1.00
H1       0.85348    0.42735    0.69185   1.00
H1       0.91637    0.35375    0.56468   1.00
H1       0.85314    0.42625    0.76395   1.00
H1       0.91431    0.47894    0.56679   1.00
H1       0.97553    0.40189    0.76543   1.00
C5       0.98868    0.40176    0.68739   1.00
H1       0.91419    0.47773    0.63901   1.00
H2       1.01156    0.39276    0.70854   1.00
H2       0.98589    0.37753    0.66603   1.00
N1       1.00141    0.43758    0.66792   1.00
C6       1.00803    0.47228    0.68512   1.00
C6       1.00902    0.44173    0.62960   1.00
C6       1.01965    0.49905    0.65743   1.00
C6       1.02026    0.47962    0.62211   1.00
H3       1.00440    0.47798    0.71599   1.00
H3       1.00612    0.41876    0.60809   1.00
H3       1.02690    0.52935    0.66241   1.00
H3       1.02800    0.49173    0.59403   1.00
C4       0.91493    0.64415    0.41493   1.00
C4       0.91507    0.68585    0.41507   1.00
C3       0.88015    0.62208    0.41559   1.00
C3       0.92179    0.70725    0.38052   1.00
C3       0.95040    0.62316    0.41408   1.00
C3a      0.90792    0.70763    0.44989   1.00
C2       0.91648    0.55983    0.41529   1.00
C2       0.91365    0.77017    0.41441   1.00
C3       0.88098    0.58066    0.41578   1.00
C3       0.92106    0.74859    0.38026   1.00
C3       0.95114    0.58180    0.41443   1.00
C3       0.90720    0.74915    0.44898   1.00
H1       0.85227    0.63692    0.41598   1.00
H1       0.92735    0.69185    0.35348   1.00
H1       0.85375    0.56468    0.41637   1.00
H1       0.92625    0.76395    0.35314   1.00
H1       0.97894    0.56679    0.41431   1.00
H1       0.90189    0.76543    0.47553   1.00
C5       0.90176    0.68739    0.48868   1.00
H1       0.97773    0.63901    0.41419   1.00
H2       0.89276    0.70854    0.51156   1.00
H2       0.87753    0.66603    0.48589   1.00
N1       0.93758    0.66792    0.50141   1.00
C6       0.97228    0.68512    0.50803   1.00
C6       0.94173    0.62960    0.50902   1.00
C6       0.99905    0.65743    0.51965   1.00
C6       0.97962    0.62211    0.52026   1.00
H3       0.97798    0.71599    0.50440   1.00
H3       0.91876    0.60809    0.50612   1.00
H3       1.02935    0.66241    0.52690   1.00
H3       0.99173    0.59403    0.52800   1.00
C4       0.68585    0.41493    0.41507   1.00
C4       0.64415    0.41507    0.41493   1.00
C3       0.70792    0.41559    0.44985   1.00
C3       0.62275    0.38052    0.40821   1.00
C3       0.70684    0.41408    0.37960   1.00
C3a      0.62237    0.44989    0.42208   1.00
C2       0.77017    0.41529    0.41352   1.00
C2       0.55983    0.41441    0.41635   1.00
C3       0.74934    0.41578    0.44902   1.00
C3       0.58141    0.38026    0.40894   1.00
C3       0.74820    0.41443    0.37886   1.00
C3       0.58085    0.44898    0.42280   1.00
H1       0.69308    0.41598    0.47773   1.00
H1       0.63815    0.35348    0.40265   1.00
H1       0.76532    0.41637    0.47625   1.00
H1       0.56605    0.35314    0.40375   1.00
H1       0.76321    0.41431    0.35106   1.00
H1       0.56457    0.47553    0.42811   1.00
C5       0.64261    0.48868    0.42824   1.00
H1       0.69099    0.41419    0.35227   1.00
H2       0.62146    0.51156    0.43724   1.00
H2       0.66397    0.48589    0.45247   1.00
N1       0.66208    0.50141    0.39242   1.00
C6       0.64488    0.50803    0.35772   1.00
C6       0.70040    0.50902    0.38827   1.00
C6       0.67257    0.51965    0.33095   1.00
C6       0.70789    0.52026    0.35038   1.00
H3       0.61401    0.50440    0.35202   1.00
H3       0.72191    0.50612    0.41124   1.00
H3       0.66759    0.52690    0.30065   1.00
H3       0.73597    0.52800    0.33827   1.00
C4       1.14415    0.41493    0.41493   1.00
C4       1.18585    0.41507    0.41507   1.00
C3       1.12208    0.41559    0.38015   1.00
C3       1.20725    0.38052    0.42179   1.00
C3       1.12316    0.41408    0.45040   1.00
C3a      1.20763    0.44989    0.40792   1.00
C2       1.05983    0.41529    0.41648   1.00
C2       1.27017    0.41441    0.41365   1.00
C3       1.08066    0.41578    0.38098   1.00
C3       1.24859    0.38026    0.42106   1.00
C3       1.08180    0.41443    0.45114   1.00
C3       1.24915    0.44898    0.40720   1.00
H1       1.13692    0.41598    0.35227   1.00
H1       1.19185    0.35348    0.42735   1.00
H1       1.06468    0.41637    0.35375   1.00
H1       1.26395    0.35314    0.42625   1.00
H1       1.06679    0.41431    0.47894   1.00
H1       1.26543    0.47553    0.40189   1.00
C5       1.18739    0.48868    0.40176   1.00
H1       1.13901    0.41419    0.47773   1.00
H2       1.20854    0.51156    0.39276   1.00
H2       1.16603    0.48589    0.37753   1.00
N1       1.16792    0.50141    0.43758   1.00
C6       1.18512    0.50803    0.47228   1.00
C6       1.12960    0.50902    0.44173   1.00
C6       1.15743    0.51965    0.49905   1.00
C6       1.12211    0.52026    0.47962   1.00
H3       1.21599    0.50440    0.47798   1.00
H3       1.10809    0.50612    0.41876   1.00
H3       1.16241    0.52690    0.52935   1.00
H3       1.09403    0.52800    0.49173   1.00
C4       0.91507    0.18585    0.41493   1.00
C4       0.91493    0.14415    0.41507   1.00
C3       0.94985    0.20792    0.41559   1.00
C3       0.90821    0.12275    0.38052   1.00
C3       0.87960    0.20684    0.41408   1.00
C3a      0.92208    0.12237    0.44989   1.00
C2       0.91352    0.27017    0.41529   1.00
C2       0.91635    0.05983    0.41441   1.00
C3       0.94902    0.24934    0.41578   1.00
C3       0.90894    0.08141    0.38026   1.00
C3       0.87886    0.24820    0.41443   1.00
C3       0.92280    0.08085    0.44898   1.00
H1       0.97773    0.19308    0.41598   1.00
H1       0.90265    0.13815    0.35348   1.00
H1       0.97625    0.26532    0.41637   1.00
H1       0.90375    0.06605    0.35314   1.00
H1       0.85106    0.26321    0.41431   1.00
H1       0.92811    0.06457    0.47553   1.00
C5       0.92824    0.14261    0.48868   1.00
H1       0.85227    0.19099    0.41419   1.00
H2       0.93724    0.12146    0.51156   1.00
H2       0.95247    0.16397    0.48589   1.00
N1       0.89242    0.16208    0.50141   1.00
C6       0.85772    0.14488    0.50803   1.00
C6       0.88827    0.20040    0.50902   1.00
C6       0.83095    0.17257    0.51965   1.00
C6       0.85038    0.20789    0.52026   1.00
H3       0.85202    0.11401    0.50440   1.00
H3       0.91124    0.22191    0.50612   1.00
H3       0.80065    0.16759    0.52690   1.00
H3       0.83827    0.23597    0.52800   1.00
C4       0.91493    0.41507    0.18585   1.00
C4       0.91507    0.41493    0.14415   1.00
C3       0.91559    0.44985    0.20792   1.00
C3       0.88052    0.40821    0.12275   1.00
C3       0.91408    0.37960    0.20684   1.00
C3a      0.94989    0.42208    0.12237   1.00
C2       0.91529    0.41352    0.27017   1.00
C2       0.91441    0.41635    0.05983   1.00
C3       0.91578    0.44902    0.24934   1.00
C3       0.88026    0.40894    0.08141   1.00
C3       0.91443    0.37886    0.24820   1.00
C3       0.94898    0.42280    0.08085   1.00
H1       0.91598    0.47773    0.19308   1.00
H1       0.85348    0.40265    0.13815   1.00
H1       0.91637    0.47625    0.26532   1.00
H1       0.85314    0.40375    0.06605   1.00
H1       0.91431    0.35106    0.26321   1.00
H1       0.97553    0.42811    0.06457   1.00
C5       0.98868    0.42824    0.14261   1.00
H1       0.91419    0.35227    0.19099   1.00
H2       1.01156    0.43724    0.12146   1.00
H2       0.98589    0.45247    0.16397   1.00
N1       1.00141    0.39242    0.16208   1.00
C6       1.00803    0.35772    0.14488   1.00
C6       1.00902    0.38827    0.20040   1.00
C6       1.01965    0.33095    0.17257   1.00
C6       1.02026    0.35038    0.20789   1.00
H3       1.00440    0.35202    0.11401   1.00
H3       1.00612    0.41124    0.22191   1.00
H3       1.02690    0.30065    0.16759   1.00
H3       1.02800    0.33827    0.23597   1.00
